WIDTH=8;
DEPTH=32768;
ADDRESS_RADIX=HEX;
DATA_RADIX=HEX;
CONTENT BEGIN
    0 : 40;
    1 : 00;
    2 : 00;
    3 : 00;
    4 : 40;
    5 : 00;
    6 : 00;
    7 : 00;
    8 : 05;
    9 : 00;
    A : 00;
    B : 00;
    C : 00;
    D : 00;
    E : 00;
    F : 00;
    10 : 5e;
    11 : 69;
    12 : 6b;
    13 : 69;
    14 : 66;
    15 : 6e;
    16 : 6b;
    17 : 6b;
    18 : 6a;
    19 : 65;
    1A : 71;
    1B : a4;
    1C : 81;
    1D : 4d;
    1E : 6e;
    1F : 8b;
    20 : ab;
    21 : b3;
    22 : b9;
    23 : b5;
    24 : b5;
    25 : a8;
    26 : 8c;
    27 : 8c;
    28 : 9e;
    29 : 7d;
    2A : 75;
    2B : 7c;
    2C : 7f;
    2D : 7f;
    2E : 78;
    2F : 71;
    30 : 8f;
    31 : ac;
    32 : ac;
    33 : a5;
    34 : ab;
    35 : ad;
    36 : b5;
    37 : ac;
    38 : 4e;
    39 : 8f;
    3A : a0;
    3B : 71;
    3C : 63;
    3D : 5f;
    3E : 59;
    3F : 65;
    40 : 5c;
    41 : 5f;
    42 : 7a;
    43 : 89;
    44 : 8d;
    45 : 96;
    46 : 99;
    47 : 81;
    48 : 67;
    49 : 5f;
    4A : 65;
    4B : 75;
    4C : 7c;
    4D : 8c;
    4E : 94;
    4F : 8c;
    50 : 59;
    51 : 66;
    52 : 65;
    53 : 68;
    54 : 67;
    55 : 63;
    56 : 65;
    57 : 6b;
    58 : 65;
    59 : 66;
    5A : 65;
    5B : 72;
    5C : a2;
    5D : ac;
    5E : 85;
    5F : 7f;
    60 : b8;
    61 : ca;
    62 : cd;
    63 : d1;
    64 : c0;
    65 : 99;
    66 : 96;
    67 : 9e;
    68 : 70;
    69 : 56;
    6A : 54;
    6B : 5d;
    6C : 5e;
    6D : 5d;
    6E : 5f;
    6F : 65;
    70 : 97;
    71 : bd;
    72 : c9;
    73 : cb;
    74 : cd;
    75 : c9;
    76 : c8;
    77 : 8f;
    78 : 63;
    79 : bb;
    7A : b1;
    7B : 8b;
    7C : 8c;
    7D : 7e;
    7E : 5b;
    7F : 42;
    80 : 6a;
    81 : 83;
    82 : 94;
    83 : 94;
    84 : 9e;
    85 : a4;
    86 : a8;
    87 : aa;
    88 : 84;
    89 : 59;
    8A : 65;
    8B : 70;
    8C : 81;
    8D : 93;
    8E : 9e;
    8F : 90;
    90 : 71;
    91 : 85;
    92 : 82;
    93 : 8d;
    94 : 97;
    95 : 6f;
    96 : 5d;
    97 : 57;
    98 : 5c;
    99 : 59;
    9A : 5a;
    9B : 57;
    9C : 5a;
    9D : 7a;
    9E : 67;
    9F : 86;
    A0 : a7;
    A1 : 7c;
    A2 : 6c;
    A3 : 6e;
    A4 : 71;
    A5 : 7d;
    A6 : 81;
    A7 : 5d;
    A8 : 58;
    A9 : 59;
    AA : 60;
    AB : 61;
    AC : 60;
    AD : 63;
    AE : 62;
    AF : 5f;
    B0 : 60;
    B1 : 81;
    B2 : c7;
    B3 : cf;
    B4 : c4;
    B5 : ba;
    B6 : 96;
    B7 : 59;
    B8 : 77;
    B9 : b2;
    BA : af;
    BB : 95;
    BC : a0;
    BD : 98;
    BE : 9d;
    BF : 69;
    C0 : 79;
    C1 : 87;
    C2 : 93;
    C3 : 96;
    C4 : 9e;
    C5 : 9e;
    C6 : a5;
    C7 : b0;
    C8 : 86;
    C9 : 3e;
    CA : 6d;
    CB : 7a;
    CC : 8c;
    CD : 8f;
    CE : 8e;
    CF : 89;
    D0 : 82;
    D1 : 9a;
    D2 : 9c;
    D3 : a6;
    D4 : a7;
    D5 : ac;
    D6 : 5a;
    D7 : 47;
    D8 : 67;
    D9 : 59;
    DA : 58;
    DB : 4b;
    DC : 49;
    DD : 4c;
    DE : 51;
    DF : 72;
    E0 : 6a;
    E1 : 4d;
    E2 : 51;
    E3 : 5b;
    E4 : 58;
    E5 : 56;
    E6 : 56;
    E7 : 5c;
    E8 : 5e;
    E9 : 5e;
    EA : 5f;
    EB : 60;
    EC : 61;
    ED : 62;
    EE : 62;
    EF : 64;
    F0 : 60;
    F1 : 5a;
    F2 : 64;
    F3 : a5;
    F4 : b6;
    F5 : 8f;
    F6 : 66;
    F7 : 4e;
    F8 : 7c;
    F9 : 83;
    FA : a0;
    FB : b3;
    FC : a3;
    FD : a9;
    FE : bb;
    FF : a2;
    100 : 7e;
    101 : 7f;
    102 : 8a;
    103 : 90;
    104 : 97;
    105 : 9d;
    106 : a5;
    107 : a1;
    108 : 62;
    109 : 35;
    10A : 7e;
    10B : 76;
    10C : 7c;
    10D : 80;
    10E : 7f;
    10F : 80;
    110 : 84;
    111 : a8;
    112 : b0;
    113 : bd;
    114 : bc;
    115 : 9d;
    116 : 58;
    117 : 58;
    118 : 82;
    119 : 7d;
    11A : 86;
    11B : 87;
    11C : 5e;
    11D : 32;
    11E : 4e;
    11F : 6d;
    120 : 51;
    121 : 5d;
    122 : 5d;
    123 : 5c;
    124 : 57;
    125 : 58;
    126 : 56;
    127 : 51;
    128 : 59;
    129 : 5c;
    12A : 5c;
    12B : 5e;
    12C : 61;
    12D : 61;
    12E : 61;
    12F : 62;
    130 : 63;
    131 : 63;
    132 : 5f;
    133 : 62;
    134 : 6f;
    135 : 4f;
    136 : 7d;
    137 : 61;
    138 : 73;
    139 : 8b;
    13A : 8f;
    13B : b6;
    13C : b4;
    13D : b6;
    13E : d0;
    13F : ba;
    140 : 8d;
    141 : 80;
    142 : 87;
    143 : 95;
    144 : 9c;
    145 : 9b;
    146 : 9e;
    147 : 98;
    148 : 40;
    149 : 49;
    14A : 89;
    14B : 7f;
    14C : 7b;
    14D : 77;
    14E : 82;
    14F : 89;
    150 : 8a;
    151 : a2;
    152 : 99;
    153 : bd;
    154 : cc;
    155 : 90;
    156 : 44;
    157 : 74;
    158 : 7f;
    159 : 87;
    15A : 89;
    15B : 92;
    15C : 8a;
    15D : 24;
    15E : 58;
    15F : 72;
    160 : 56;
    161 : 53;
    162 : 58;
    163 : 5c;
    164 : 56;
    165 : 56;
    166 : 5b;
    167 : 60;
    168 : 5a;
    169 : 60;
    16A : 5c;
    16B : 59;
    16C : 59;
    16D : 5c;
    16E : 62;
    16F : 62;
    170 : 66;
    171 : 5a;
    172 : 66;
    173 : 60;
    174 : 58;
    175 : 63;
    176 : 76;
    177 : 59;
    178 : 62;
    179 : 82;
    17A : 96;
    17B : a3;
    17C : c3;
    17D : d2;
    17E : bf;
    17F : ac;
    180 : a0;
    181 : 86;
    182 : 8d;
    183 : 9c;
    184 : a0;
    185 : 9f;
    186 : 99;
    187 : 7d;
    188 : 28;
    189 : 5f;
    18A : 82;
    18B : 8c;
    18C : 8a;
    18D : 74;
    18E : 8a;
    18F : 91;
    190 : 84;
    191 : a4;
    192 : 9a;
    193 : a6;
    194 : a7;
    195 : 64;
    196 : 5c;
    197 : 7e;
    198 : 83;
    199 : 88;
    19A : b5;
    19B : b2;
    19C : 57;
    19D : 3b;
    19E : 87;
    19F : 62;
    1A0 : 55;
    1A1 : 58;
    1A2 : 61;
    1A3 : 58;
    1A4 : 58;
    1A5 : 56;
    1A6 : 77;
    1A7 : 9c;
    1A8 : 5d;
    1A9 : 5b;
    1AA : 5e;
    1AB : 6a;
    1AC : 67;
    1AD : 59;
    1AE : 5a;
    1AF : 61;
    1B0 : 61;
    1B1 : 62;
    1B2 : 60;
    1B3 : 58;
    1B4 : 5d;
    1B5 : 5e;
    1B6 : 60;
    1B7 : 6a;
    1B8 : 71;
    1B9 : 85;
    1BA : 96;
    1BB : af;
    1BC : ba;
    1BD : c4;
    1BE : aa;
    1BF : a9;
    1C0 : a5;
    1C1 : 94;
    1C2 : 98;
    1C3 : 9d;
    1C4 : a1;
    1C5 : a1;
    1C6 : 81;
    1C7 : 41;
    1C8 : 14;
    1C9 : 6d;
    1CA : 7d;
    1CB : 7f;
    1CC : 81;
    1CD : 78;
    1CE : 8c;
    1CF : 8e;
    1D0 : 63;
    1D1 : 74;
    1D2 : 90;
    1D3 : 95;
    1D4 : 5c;
    1D5 : 47;
    1D6 : 75;
    1D7 : 7d;
    1D8 : 88;
    1D9 : a6;
    1DA : d7;
    1DB : 7c;
    1DC : 16;
    1DD : 55;
    1DE : 77;
    1DF : 5f;
    1E0 : 58;
    1E1 : 57;
    1E2 : 55;
    1E3 : 55;
    1E4 : 5e;
    1E5 : 67;
    1E6 : a2;
    1E7 : 92;
    1E8 : 5a;
    1E9 : 58;
    1EA : 59;
    1EB : 63;
    1EC : 61;
    1ED : 59;
    1EE : 5d;
    1EF : 60;
    1F0 : 62;
    1F1 : 60;
    1F2 : 61;
    1F3 : 62;
    1F4 : 60;
    1F5 : 5c;
    1F6 : 5f;
    1F7 : 62;
    1F8 : 66;
    1F9 : 7d;
    1FA : 96;
    1FB : a1;
    1FC : a0;
    1FD : 9f;
    1FE : a8;
    1FF : a9;
    200 : aa;
    201 : 9b;
    202 : 94;
    203 : 9d;
    204 : a5;
    205 : 7d;
    206 : 3a;
    207 : 05;
    208 : 11;
    209 : 6d;
    20A : 83;
    20B : 80;
    20C : 81;
    20D : 7e;
    20E : 85;
    20F : 91;
    210 : 61;
    211 : 73;
    212 : 81;
    213 : 87;
    214 : 3d;
    215 : 63;
    216 : 78;
    217 : 7a;
    218 : 8b;
    219 : bb;
    21A : 66;
    21B : 0c;
    21C : 38;
    21D : 5b;
    21E : 5e;
    21F : 5e;
    220 : 5a;
    221 : 59;
    222 : 54;
    223 : 55;
    224 : 63;
    225 : 85;
    226 : a3;
    227 : 5e;
    228 : 57;
    229 : 61;
    22A : 5b;
    22B : 59;
    22C : 5a;
    22D : 5d;
    22E : 59;
    22F : 5f;
    230 : 63;
    231 : 63;
    232 : 63;
    233 : 66;
    234 : 60;
    235 : 60;
    236 : 65;
    237 : 5e;
    238 : 5d;
    239 : 61;
    23A : 83;
    23B : 97;
    23C : 94;
    23D : 94;
    23E : 9f;
    23F : a3;
    240 : a7;
    241 : 9e;
    242 : 9b;
    243 : a0;
    244 : a2;
    245 : 41;
    246 : 01;
    247 : 04;
    248 : 09;
    249 : 64;
    24A : 82;
    24B : 78;
    24C : 80;
    24D : 84;
    24E : 8a;
    24F : 93;
    250 : 67;
    251 : 84;
    252 : 7f;
    253 : 90;
    254 : 79;
    255 : 60;
    256 : 7a;
    257 : a2;
    258 : 93;
    259 : 44;
    25A : 00;
    25B : 2a;
    25C : 5e;
    25D : 5e;
    25E : 6a;
    25F : 59;
    260 : 5b;
    261 : 55;
    262 : 57;
    263 : 54;
    264 : 63;
    265 : 93;
    266 : 87;
    267 : 53;
    268 : 59;
    269 : 60;
    26A : 64;
    26B : 64;
    26C : 60;
    26D : 5d;
    26E : 61;
    26F : 5e;
    270 : 5d;
    271 : 64;
    272 : 65;
    273 : 64;
    274 : 69;
    275 : 61;
    276 : 5e;
    277 : 64;
    278 : 60;
    279 : 5a;
    27A : 64;
    27B : 8c;
    27C : 9a;
    27D : 97;
    27E : 9c;
    27F : 9e;
    280 : a1;
    281 : a2;
    282 : a0;
    283 : af;
    284 : 95;
    285 : 13;
    286 : 00;
    287 : 0a;
    288 : 11;
    289 : 54;
    28A : 81;
    28B : 79;
    28C : 69;
    28D : 83;
    28E : 8c;
    28F : 9b;
    290 : 61;
    291 : 7d;
    292 : 86;
    293 : 89;
    294 : 81;
    295 : 71;
    296 : b7;
    297 : a7;
    298 : 38;
    299 : 03;
    29A : 11;
    29B : 6d;
    29C : 61;
    29D : 68;
    29E : 5d;
    29F : 61;
    2A0 : 5c;
    2A1 : 58;
    2A2 : 52;
    2A3 : 5a;
    2A4 : 7c;
    2A5 : 98;
    2A6 : 61;
    2A7 : 55;
    2A8 : 5d;
    2A9 : 5d;
    2AA : 67;
    2AB : 63;
    2AC : 56;
    2AD : 61;
    2AE : 62;
    2AF : 63;
    2B0 : 63;
    2B1 : 63;
    2B2 : 67;
    2B3 : 61;
    2B4 : 66;
    2B5 : 64;
    2B6 : 60;
    2B7 : 5e;
    2B8 : 63;
    2B9 : 66;
    2BA : 65;
    2BB : 6d;
    2BC : 90;
    2BD : 90;
    2BE : 95;
    2BF : a2;
    2C0 : aa;
    2C1 : 9a;
    2C2 : 78;
    2C3 : 69;
    2C4 : 70;
    2C5 : 5d;
    2C6 : 3b;
    2C7 : 39;
    2C8 : 66;
    2C9 : 76;
    2CA : 7c;
    2CB : 7f;
    2CC : 75;
    2CD : 7c;
    2CE : 89;
    2CF : 9b;
    2D0 : 60;
    2D1 : 77;
    2D2 : 80;
    2D3 : 85;
    2D4 : 72;
    2D5 : 6a;
    2D6 : 84;
    2D7 : 30;
    2D8 : 08;
    2D9 : 03;
    2DA : 44;
    2DB : 75;
    2DC : 58;
    2DD : 52;
    2DE : 59;
    2DF : 56;
    2E0 : 5b;
    2E1 : 59;
    2E2 : 51;
    2E3 : 6c;
    2E4 : 9b;
    2E5 : 8c;
    2E6 : 58;
    2E7 : 5e;
    2E8 : 5d;
    2E9 : 5b;
    2EA : 63;
    2EB : 65;
    2EC : 65;
    2ED : 5f;
    2EE : 60;
    2EF : 66;
    2F0 : 67;
    2F1 : 61;
    2F2 : 64;
    2F3 : 64;
    2F4 : 66;
    2F5 : 69;
    2F6 : 67;
    2F7 : 66;
    2F8 : 61;
    2F9 : 5c;
    2FA : 6b;
    2FB : 66;
    2FC : 6f;
    2FD : 88;
    2FE : 9b;
    2FF : 91;
    300 : 73;
    301 : 5f;
    302 : 51;
    303 : 59;
    304 : 77;
    305 : 8a;
    306 : 8e;
    307 : 7e;
    308 : 78;
    309 : 85;
    30A : 8a;
    30B : 90;
    30C : 88;
    30D : 77;
    30E : 87;
    30F : 8d;
    310 : 66;
    311 : 75;
    312 : 7f;
    313 : 84;
    314 : 40;
    315 : 18;
    316 : 19;
    317 : 08;
    318 : 04;
    319 : 4d;
    31A : 82;
    31B : 5e;
    31C : 58;
    31D : 58;
    31E : 57;
    31F : 53;
    320 : 55;
    321 : 50;
    322 : 5a;
    323 : 7c;
    324 : a5;
    325 : 78;
    326 : 61;
    327 : 5c;
    328 : 5c;
    329 : 5f;
    32A : 62;
    32B : 73;
    32C : 88;
    32D : 60;
    32E : 5f;
    32F : 63;
    330 : 64;
    331 : 64;
    332 : 60;
    333 : 66;
    334 : 68;
    335 : 63;
    336 : 5e;
    337 : 63;
    338 : 65;
    339 : 66;
    33A : 60;
    33B : 6b;
    33C : 5b;
    33D : 6c;
    33E : 67;
    33F : 3f;
    340 : 3d;
    341 : 5d;
    342 : 60;
    343 : 70;
    344 : 83;
    345 : 87;
    346 : 94;
    347 : 8f;
    348 : 87;
    349 : 89;
    34A : a4;
    34B : a9;
    34C : 9a;
    34D : 8a;
    34E : 89;
    34F : 84;
    350 : 5d;
    351 : 7f;
    352 : 87;
    353 : 4e;
    354 : 16;
    355 : 07;
    356 : 0e;
    357 : 0f;
    358 : 33;
    359 : 9b;
    35A : 69;
    35B : 52;
    35C : 5a;
    35D : 54;
    35E : 53;
    35F : 5b;
    360 : 58;
    361 : 54;
    362 : 6c;
    363 : 89;
    364 : b3;
    365 : 74;
    366 : 5d;
    367 : 5d;
    368 : 5e;
    369 : 63;
    36A : 65;
    36B : 70;
    36C : 7f;
    36D : 72;
    36E : 5a;
    36F : 61;
    370 : 62;
    371 : 66;
    372 : 61;
    373 : 66;
    374 : 63;
    375 : 67;
    376 : 71;
    377 : 5d;
    378 : 67;
    379 : 74;
    37A : 72;
    37B : 61;
    37C : 66;
    37D : 67;
    37E : 38;
    37F : 19;
    380 : 47;
    381 : 4c;
    382 : 5a;
    383 : 76;
    384 : 7c;
    385 : 8e;
    386 : 8f;
    387 : 9a;
    388 : 92;
    389 : 9c;
    38A : b4;
    38B : ba;
    38C : ad;
    38D : a7;
    38E : 98;
    38F : 89;
    390 : 74;
    391 : 9b;
    392 : 9f;
    393 : 6e;
    394 : 65;
    395 : 45;
    396 : 1f;
    397 : 1d;
    398 : 76;
    399 : 97;
    39A : 69;
    39B : 54;
    39C : 55;
    39D : 56;
    39E : 56;
    39F : 54;
    3A0 : 58;
    3A1 : 64;
    3A2 : 79;
    3A3 : 93;
    3A4 : c1;
    3A5 : 87;
    3A6 : 5a;
    3A7 : 60;
    3A8 : 60;
    3A9 : 62;
    3AA : 65;
    3AB : 65;
    3AC : 65;
    3AD : 7b;
    3AE : 60;
    3AF : 5e;
    3B0 : 60;
    3B1 : 65;
    3B2 : 64;
    3B3 : 65;
    3B4 : 61;
    3B5 : 76;
    3B6 : ad;
    3B7 : 8d;
    3B8 : 90;
    3B9 : ae;
    3BA : 8b;
    3BB : 6e;
    3BC : 86;
    3BD : 61;
    3BE : 5c;
    3BF : 1f;
    3C0 : 32;
    3C1 : 48;
    3C2 : 5d;
    3C3 : 6c;
    3C4 : 83;
    3C5 : 87;
    3C6 : 95;
    3C7 : a7;
    3C8 : 9d;
    3C9 : a6;
    3CA : a9;
    3CB : 93;
    3CC : a6;
    3CD : d5;
    3CE : c3;
    3CF : 93;
    3D0 : 97;
    3D1 : a8;
    3D2 : 9f;
    3D3 : ab;
    3D4 : a6;
    3D5 : 88;
    3D6 : 42;
    3D7 : 3d;
    3D8 : 95;
    3D9 : 85;
    3DA : 71;
    3DB : 52;
    3DC : 55;
    3DD : 55;
    3DE : 4f;
    3DF : 50;
    3E0 : 46;
    3E1 : 65;
    3E2 : 76;
    3E3 : 91;
    3E4 : ba;
    3E5 : 98;
    3E6 : 60;
    3E7 : 56;
    3E8 : 5f;
    3E9 : 5f;
    3EA : 61;
    3EB : 69;
    3EC : 6b;
    3ED : 6c;
    3EE : 73;
    3EF : 57;
    3F0 : 5e;
    3F1 : 66;
    3F2 : 63;
    3F3 : 61;
    3F4 : 62;
    3F5 : 73;
    3F6 : cf;
    3F7 : cc;
    3F8 : c5;
    3F9 : da;
    3FA : 9d;
    3FB : 6e;
    3FC : 9e;
    3FD : 76;
    3FE : 66;
    3FF : 36;
    400 : 15;
    401 : 43;
    402 : 62;
    403 : 74;
    404 : 7c;
    405 : 8d;
    406 : a5;
    407 : c1;
    408 : a5;
    409 : 96;
    40A : b5;
    40B : 82;
    40C : 8c;
    40D : d0;
    40E : b6;
    40F : 7d;
    410 : 91;
    411 : ac;
    412 : a8;
    413 : a3;
    414 : 96;
    415 : 70;
    416 : 48;
    417 : 5c;
    418 : 93;
    419 : 76;
    41A : 7e;
    41B : 60;
    41C : 54;
    41D : 5a;
    41E : 7f;
    41F : 66;
    420 : 6f;
    421 : 6b;
    422 : 71;
    423 : 7b;
    424 : a6;
    425 : 9e;
    426 : 8c;
    427 : 5f;
    428 : 58;
    429 : 65;
    42A : 5e;
    42B : 64;
    42C : 84;
    42D : 6c;
    42E : 6b;
    42F : 58;
    430 : 5d;
    431 : 61;
    432 : 67;
    433 : 63;
    434 : 63;
    435 : 7c;
    436 : c1;
    437 : d7;
    438 : bd;
    439 : d4;
    43A : 92;
    43B : 6f;
    43C : 77;
    43D : 6d;
    43E : 67;
    43F : 4f;
    440 : 17;
    441 : 40;
    442 : 67;
    443 : 76;
    444 : 79;
    445 : 91;
    446 : b3;
    447 : d1;
    448 : af;
    449 : 93;
    44A : 93;
    44B : a3;
    44C : 8f;
    44D : 68;
    44E : 5e;
    44F : 7b;
    450 : 96;
    451 : b2;
    452 : a9;
    453 : a2;
    454 : 90;
    455 : 53;
    456 : 15;
    457 : 68;
    458 : 94;
    459 : 6c;
    45A : 83;
    45B : 7d;
    45C : 48;
    45D : 8b;
    45E : 8f;
    45F : 70;
    460 : 83;
    461 : 7b;
    462 : 79;
    463 : 8a;
    464 : a7;
    465 : a9;
    466 : a7;
    467 : 94;
    468 : 5b;
    469 : 5f;
    46A : 65;
    46B : 69;
    46C : 96;
    46D : 7e;
    46E : 62;
    46F : 5c;
    470 : 5b;
    471 : 61;
    472 : 60;
    473 : 65;
    474 : 63;
    475 : 84;
    476 : c1;
    477 : b4;
    478 : 9b;
    479 : af;
    47A : 76;
    47B : 65;
    47C : 58;
    47D : 61;
    47E : 65;
    47F : 5e;
    480 : 23;
    481 : 3c;
    482 : 61;
    483 : 75;
    484 : 84;
    485 : 8e;
    486 : b9;
    487 : df;
    488 : b3;
    489 : 8b;
    48A : 8f;
    48B : 7a;
    48C : 5b;
    48D : 51;
    48E : 79;
    48F : 85;
    490 : 95;
    491 : af;
    492 : ac;
    493 : 99;
    494 : 5d;
    495 : 18;
    496 : 0d;
    497 : 7a;
    498 : 95;
    499 : 81;
    49A : 8c;
    49B : 8b;
    49C : 6c;
    49D : 91;
    49E : 71;
    49F : 79;
    4A0 : 84;
    4A1 : 89;
    4A2 : 8d;
    4A3 : 99;
    4A4 : 97;
    4A5 : 9e;
    4A6 : a0;
    4A7 : 9f;
    4A8 : 76;
    4A9 : 57;
    4AA : 60;
    4AB : 73;
    4AC : c0;
    4AD : af;
    4AE : 64;
    4AF : 5c;
    4B0 : 5a;
    4B1 : 61;
    4B2 : 63;
    4B3 : 62;
    4B4 : 64;
    4B5 : 7e;
    4B6 : 8f;
    4B7 : 7f;
    4B8 : 77;
    4B9 : 6f;
    4BA : 6a;
    4BB : 6c;
    4BC : 66;
    4BD : 89;
    4BE : 71;
    4BF : 69;
    4C0 : 1c;
    4C1 : 42;
    4C2 : 63;
    4C3 : 78;
    4C4 : 86;
    4C5 : 93;
    4C6 : ca;
    4C7 : d9;
    4C8 : ac;
    4C9 : 91;
    4CA : 7b;
    4CB : 3e;
    4CC : 63;
    4CD : 93;
    4CE : 80;
    4CF : 8b;
    4D0 : 78;
    4D1 : 8f;
    4D2 : 8f;
    4D3 : 72;
    4D4 : 29;
    4D5 : 09;
    4D6 : 27;
    4D7 : 83;
    4D8 : 85;
    4D9 : 8a;
    4DA : 81;
    4DB : 91;
    4DC : 8f;
    4DD : 7d;
    4DE : 7e;
    4DF : 85;
    4E0 : 8c;
    4E1 : 93;
    4E2 : 9c;
    4E3 : a0;
    4E4 : 9f;
    4E5 : bd;
    4E6 : b5;
    4E7 : aa;
    4E8 : 88;
    4E9 : 5b;
    4EA : 62;
    4EB : 73;
    4EC : c7;
    4ED : ce;
    4EE : 71;
    4EF : 5a;
    4F0 : 54;
    4F1 : 5d;
    4F2 : 64;
    4F3 : 60;
    4F4 : 62;
    4F5 : 6c;
    4F6 : 6b;
    4F7 : 73;
    4F8 : 6c;
    4F9 : 60;
    4FA : 6d;
    4FB : 56;
    4FC : 6d;
    4FD : d2;
    4FE : 99;
    4FF : 71;
    500 : 22;
    501 : 3f;
    502 : 61;
    503 : 7b;
    504 : 81;
    505 : 99;
    506 : c5;
    507 : d9;
    508 : ac;
    509 : 8f;
    50A : 68;
    50B : 70;
    50C : c9;
    50D : 9c;
    50E : 75;
    50F : 8a;
    510 : 54;
    511 : 59;
    512 : 60;
    513 : 74;
    514 : 79;
    515 : 48;
    516 : 28;
    517 : 89;
    518 : 87;
    519 : 80;
    51A : 86;
    51B : 89;
    51C : 7c;
    51D : 81;
    51E : 85;
    51F : 81;
    520 : 90;
    521 : 99;
    522 : aa;
    523 : a1;
    524 : a4;
    525 : ca;
    526 : ba;
    527 : a8;
    528 : 79;
    529 : 5b;
    52A : 65;
    52B : 70;
    52C : b9;
    52D : e0;
    52E : 8d;
    52F : 56;
    530 : 58;
    531 : 5c;
    532 : 5a;
    533 : 60;
    534 : 64;
    535 : 64;
    536 : 6c;
    537 : 67;
    538 : 65;
    539 : 67;
    53A : 5e;
    53B : 56;
    53C : 8c;
    53D : e0;
    53E : 97;
    53F : 63;
    540 : 1f;
    541 : 35;
    542 : 60;
    543 : 71;
    544 : 7b;
    545 : 97;
    546 : a7;
    547 : d3;
    548 : bb;
    549 : 89;
    54A : 83;
    54B : cf;
    54C : 8a;
    54D : 5f;
    54E : 82;
    54F : 8f;
    550 : 5d;
    551 : 87;
    552 : 66;
    553 : 71;
    554 : 7c;
    555 : 4b;
    556 : 13;
    557 : 7f;
    558 : 82;
    559 : 7d;
    55A : 79;
    55B : 87;
    55C : 76;
    55D : 78;
    55E : 8e;
    55F : 84;
    560 : 92;
    561 : a0;
    562 : b7;
    563 : a4;
    564 : 98;
    565 : aa;
    566 : a2;
    567 : 9f;
    568 : 7a;
    569 : 59;
    56A : 61;
    56B : 6e;
    56C : a4;
    56D : d2;
    56E : 9a;
    56F : 5a;
    570 : 54;
    571 : 59;
    572 : 5c;
    573 : 5a;
    574 : 5e;
    575 : 64;
    576 : 6d;
    577 : 69;
    578 : 65;
    579 : 60;
    57A : 60;
    57B : 61;
    57C : ab;
    57D : be;
    57E : 72;
    57F : 49;
    580 : 15;
    581 : 3c;
    582 : 57;
    583 : 63;
    584 : 74;
    585 : 84;
    586 : 9d;
    587 : d0;
    588 : bc;
    589 : 84;
    58A : bd;
    58B : 85;
    58C : 45;
    58D : 6d;
    58E : 81;
    58F : 91;
    590 : 49;
    591 : 7c;
    592 : 7d;
    593 : 63;
    594 : 5c;
    595 : 0c;
    596 : 15;
    597 : 71;
    598 : 82;
    599 : 72;
    59A : 73;
    59B : 74;
    59C : 70;
    59D : 75;
    59E : 88;
    59F : 85;
    5A0 : 8e;
    5A1 : 97;
    5A2 : a1;
    5A3 : 9a;
    5A4 : 95;
    5A5 : 99;
    5A6 : 9d;
    5A7 : a3;
    5A8 : 8a;
    5A9 : 5b;
    5AA : 60;
    5AB : 66;
    5AC : 7d;
    5AD : 94;
    5AE : 87;
    5AF : 67;
    5B0 : 55;
    5B1 : 4e;
    5B2 : 56;
    5B3 : 5c;
    5B4 : 5a;
    5B5 : 64;
    5B6 : 63;
    5B7 : 62;
    5B8 : 64;
    5B9 : 5f;
    5BA : 5d;
    5BB : 9a;
    5BC : c1;
    5BD : 79;
    5BE : 63;
    5BF : 2e;
    5C0 : 10;
    5C1 : 36;
    5C2 : 44;
    5C3 : 58;
    5C4 : 57;
    5C5 : 60;
    5C6 : 72;
    5C7 : 83;
    5C8 : 79;
    5C9 : 97;
    5CA : d2;
    5CB : 85;
    5CC : 6a;
    5CD : 5d;
    5CE : 74;
    5CF : 8f;
    5D0 : 34;
    5D1 : 3e;
    5D2 : 3a;
    5D3 : 32;
    5D4 : 12;
    5D5 : 02;
    5D6 : 1d;
    5D7 : 6a;
    5D8 : 6a;
    5D9 : 71;
    5DA : 60;
    5DB : 40;
    5DC : 63;
    5DD : 80;
    5DE : 7d;
    5DF : 82;
    5E0 : 88;
    5E1 : 91;
    5E2 : 93;
    5E3 : a1;
    5E4 : a5;
    5E5 : 9e;
    5E6 : a2;
    5E7 : a1;
    5E8 : 87;
    5E9 : 55;
    5EA : 61;
    5EB : 63;
    5EC : 6a;
    5ED : 70;
    5EE : 79;
    5EF : 6c;
    5F0 : 68;
    5F1 : 72;
    5F2 : 92;
    5F3 : ab;
    5F4 : 6d;
    5F5 : 4f;
    5F6 : 61;
    5F7 : 61;
    5F8 : 62;
    5F9 : 61;
    5FA : 79;
    5FB : be;
    5FC : 9d;
    5FD : 68;
    5FE : 5d;
    5FF : 22;
    600 : 10;
    601 : 20;
    602 : 2a;
    603 : 2a;
    604 : 22;
    605 : 6c;
    606 : 75;
    607 : 61;
    608 : 93;
    609 : b5;
    60A : ca;
    60B : c5;
    60C : bb;
    60D : a6;
    60E : 77;
    60F : 81;
    610 : 16;
    611 : 0b;
    612 : 0a;
    613 : 02;
    614 : 0b;
    615 : 3f;
    616 : 41;
    617 : 30;
    618 : 51;
    619 : 66;
    61A : 40;
    61B : 28;
    61C : 67;
    61D : 7e;
    61E : 83;
    61F : 83;
    620 : 87;
    621 : 90;
    622 : 92;
    623 : a3;
    624 : b3;
    625 : a1;
    626 : 9d;
    627 : a2;
    628 : 7e;
    629 : 4f;
    62A : 5c;
    62B : 5f;
    62C : 61;
    62D : 64;
    62E : 71;
    62F : 6f;
    630 : 66;
    631 : 53;
    632 : 6f;
    633 : c3;
    634 : 9c;
    635 : 4d;
    636 : 63;
    637 : 63;
    638 : 63;
    639 : 6a;
    63A : 8a;
    63B : a4;
    63C : 77;
    63D : 60;
    63E : 69;
    63F : 6c;
    640 : 11;
    641 : 0d;
    642 : 11;
    643 : 05;
    644 : 4d;
    645 : ac;
    646 : a5;
    647 : a3;
    648 : 9f;
    649 : b9;
    64A : be;
    64B : b5;
    64C : c3;
    64D : d9;
    64E : 95;
    64F : 6e;
    650 : 56;
    651 : 44;
    652 : 15;
    653 : 25;
    654 : 72;
    655 : 53;
    656 : 2c;
    657 : 3e;
    658 : 62;
    659 : 47;
    65A : 34;
    65B : 30;
    65C : 71;
    65D : 83;
    65E : 7a;
    65F : 81;
    660 : 86;
    661 : 8d;
    662 : 94;
    663 : a2;
    664 : aa;
    665 : 9e;
    666 : a0;
    667 : a4;
    668 : 7a;
    669 : 4c;
    66A : 57;
    66B : 5e;
    66C : 66;
    66D : 62;
    66E : 67;
    66F : 6e;
    670 : 6d;
    671 : 5b;
    672 : 5c;
    673 : 9f;
    674 : ba;
    675 : 62;
    676 : 51;
    677 : 62;
    678 : 64;
    679 : 6a;
    67A : 7a;
    67B : 77;
    67C : 63;
    67D : 61;
    67E : 61;
    67F : 78;
    680 : 0c;
    681 : 0a;
    682 : 0b;
    683 : 0c;
    684 : 79;
    685 : a3;
    686 : b3;
    687 : b6;
    688 : b1;
    689 : b4;
    68A : bf;
    68B : cf;
    68C : cd;
    68D : d2;
    68E : a6;
    68F : 62;
    690 : 78;
    691 : 7f;
    692 : 6c;
    693 : 7c;
    694 : 59;
    695 : 36;
    696 : 32;
    697 : 52;
    698 : 52;
    699 : 34;
    69A : 33;
    69B : 36;
    69C : 7d;
    69D : 8b;
    69E : 7b;
    69F : 7e;
    6A0 : 86;
    6A1 : 88;
    6A2 : 96;
    6A3 : a1;
    6A4 : a4;
    6A5 : 9f;
    6A6 : a3;
    6A7 : a4;
    6A8 : 6a;
    6A9 : 44;
    6AA : 59;
    6AB : 57;
    6AC : 5f;
    6AD : 69;
    6AE : 6a;
    6AF : 71;
    6B0 : 6a;
    6B1 : 5c;
    6B2 : 5f;
    6B3 : 8d;
    6B4 : c1;
    6B5 : 7a;
    6B6 : 4a;
    6B7 : 5c;
    6B8 : 5d;
    6B9 : 5d;
    6BA : 5b;
    6BB : 58;
    6BC : 69;
    6BD : 5e;
    6BE : 14;
    6BF : 49;
    6C0 : 31;
    6C1 : 02;
    6C2 : 02;
    6C3 : 10;
    6C4 : 80;
    6C5 : 95;
    6C6 : a8;
    6C7 : bc;
    6C8 : b4;
    6C9 : bb;
    6CA : cc;
    6CB : d4;
    6CC : cd;
    6CD : d8;
    6CE : 97;
    6CF : 56;
    6D0 : 70;
    6D1 : 7b;
    6D2 : 79;
    6D3 : 6b;
    6D4 : 40;
    6D5 : 35;
    6D6 : 3d;
    6D7 : 51;
    6D8 : 38;
    6D9 : 3a;
    6DA : 34;
    6DB : 3a;
    6DC : 8b;
    6DD : 90;
    6DE : 85;
    6DF : 80;
    6E0 : 84;
    6E1 : 85;
    6E2 : 96;
    6E3 : 9f;
    6E4 : a4;
    6E5 : a1;
    6E6 : a2;
    6E7 : a1;
    6E8 : 68;
    6E9 : 48;
    6EA : 4e;
    6EB : 5d;
    6EC : 63;
    6ED : 60;
    6EE : 68;
    6EF : 5e;
    6F0 : 63;
    6F1 : 72;
    6F2 : 72;
    6F3 : 7a;
    6F4 : b5;
    6F5 : 9c;
    6F6 : 46;
    6F7 : 4b;
    6F8 : 63;
    6F9 : 69;
    6FA : 72;
    6FB : 7f;
    6FC : 5b;
    6FD : 18;
    6FE : 4a;
    6FF : 79;
    700 : 7d;
    701 : 56;
    702 : 22;
    703 : 09;
    704 : 79;
    705 : 95;
    706 : 9b;
    707 : a6;
    708 : ac;
    709 : b8;
    70A : bc;
    70B : d1;
    70C : ce;
    70D : dc;
    70E : 7b;
    70F : 45;
    710 : 6d;
    711 : 72;
    712 : 73;
    713 : 4c;
    714 : 3b;
    715 : 3b;
    716 : 42;
    717 : 3f;
    718 : 37;
    719 : 3e;
    71A : 2f;
    71B : 45;
    71C : 97;
    71D : 90;
    71E : 89;
    71F : 87;
    720 : 85;
    721 : 88;
    722 : 96;
    723 : 9d;
    724 : a3;
    725 : a0;
    726 : a0;
    727 : a2;
    728 : 59;
    729 : 36;
    72A : 47;
    72B : 48;
    72C : 4c;
    72D : 4a;
    72E : 42;
    72F : 53;
    730 : 7a;
    731 : 87;
    732 : 88;
    733 : 77;
    734 : a9;
    735 : b6;
    736 : 5a;
    737 : 4f;
    738 : 63;
    739 : 5e;
    73A : 7c;
    73B : 93;
    73C : 8c;
    73D : 50;
    73E : 6d;
    73F : 8d;
    740 : 8c;
    741 : 8a;
    742 : 6a;
    743 : 1f;
    744 : 63;
    745 : 8d;
    746 : 8f;
    747 : 9d;
    748 : a0;
    749 : ac;
    74A : b3;
    74B : c2;
    74C : ce;
    74D : d0;
    74E : 45;
    74F : 30;
    750 : 63;
    751 : 74;
    752 : 57;
    753 : 37;
    754 : 2e;
    755 : 3a;
    756 : 3d;
    757 : 3a;
    758 : 3a;
    759 : 36;
    75A : 2f;
    75B : 5a;
    75C : 99;
    75D : 8f;
    75E : 89;
    75F : 8a;
    760 : 8a;
    761 : 91;
    762 : 9c;
    763 : 9e;
    764 : a0;
    765 : 9e;
    766 : a2;
    767 : a1;
    768 : 3f;
    769 : 22;
    76A : 27;
    76B : 31;
    76C : 44;
    76D : 46;
    76E : 51;
    76F : 81;
    770 : 8c;
    771 : 91;
    772 : 90;
    773 : 6a;
    774 : 91;
    775 : c0;
    776 : 7e;
    777 : 48;
    778 : 55;
    779 : 5a;
    77A : 78;
    77B : 84;
    77C : 96;
    77D : a0;
    77E : 83;
    77F : 81;
    780 : 90;
    781 : 94;
    782 : 8d;
    783 : 3e;
    784 : 42;
    785 : 88;
    786 : 84;
    787 : 90;
    788 : 96;
    789 : a5;
    78A : a9;
    78B : bc;
    78C : bb;
    78D : a5;
    78E : 64;
    78F : 6b;
    790 : 6f;
    791 : 69;
    792 : 45;
    793 : 36;
    794 : 35;
    795 : 35;
    796 : 3e;
    797 : 3d;
    798 : 37;
    799 : 34;
    79A : 33;
    79B : 6b;
    79C : 97;
    79D : 8e;
    79E : 89;
    79F : 89;
    7A0 : 8f;
    7A1 : 96;
    7A2 : 9f;
    7A3 : a1;
    7A4 : 9f;
    7A5 : a0;
    7A6 : a5;
    7A7 : 95;
    7A8 : 43;
    7A9 : 31;
    7AA : 4d;
    7AB : 69;
    7AC : 7b;
    7AD : 72;
    7AE : 5d;
    7AF : 6e;
    7B0 : 5e;
    7B1 : 8e;
    7B2 : 9c;
    7B3 : 6e;
    7B4 : 7c;
    7B5 : b6;
    7B6 : a5;
    7B7 : 67;
    7B8 : 63;
    7B9 : 55;
    7BA : 71;
    7BB : 8c;
    7BC : a2;
    7BD : a0;
    7BE : 8e;
    7BF : 89;
    7C0 : 96;
    7C1 : c9;
    7C2 : b8;
    7C3 : 67;
    7C4 : 26;
    7C5 : 63;
    7C6 : 7a;
    7C7 : 81;
    7C8 : 88;
    7C9 : 83;
    7CA : 8f;
    7CB : 8d;
    7CC : 8f;
    7CD : 9c;
    7CE : 7d;
    7CF : 51;
    7D0 : 5f;
    7D1 : 5d;
    7D2 : 40;
    7D3 : 3b;
    7D4 : 3a;
    7D5 : 3b;
    7D6 : 39;
    7D7 : 3c;
    7D8 : 3c;
    7D9 : 3c;
    7DA : 2e;
    7DB : 73;
    7DC : 9a;
    7DD : 8d;
    7DE : 8a;
    7DF : 8b;
    7E0 : 8f;
    7E1 : 94;
    7E2 : 9e;
    7E3 : a2;
    7E4 : 9f;
    7E5 : a3;
    7E6 : a6;
    7E7 : 83;
    7E8 : 34;
    7E9 : 5b;
    7EA : 80;
    7EB : 8d;
    7EC : 87;
    7ED : 88;
    7EE : 80;
    7EF : 4a;
    7F0 : 2f;
    7F1 : 40;
    7F2 : 64;
    7F3 : 7b;
    7F4 : 7d;
    7F5 : af;
    7F6 : c6;
    7F7 : 86;
    7F8 : 61;
    7F9 : 6d;
    7FA : 72;
    7FB : 82;
    7FC : 67;
    7FD : 61;
    7FE : 7b;
    7FF : 7c;
    800 : 86;
    801 : ba;
    802 : da;
    803 : 91;
    804 : 1f;
    805 : 3f;
    806 : 6c;
    807 : 6d;
    808 : 6e;
    809 : 6b;
    80A : 5f;
    80B : 5d;
    80C : 73;
    80D : 66;
    80E : 4e;
    80F : 52;
    810 : 4d;
    811 : 4f;
    812 : 45;
    813 : 42;
    814 : 3a;
    815 : 3b;
    816 : 3c;
    817 : 3e;
    818 : 44;
    819 : 39;
    81A : 36;
    81B : 73;
    81C : 97;
    81D : 8e;
    81E : 89;
    81F : 8f;
    820 : 91;
    821 : 97;
    822 : 9d;
    823 : a0;
    824 : 9f;
    825 : a4;
    826 : a8;
    827 : 52;
    828 : 32;
    829 : 79;
    82A : 88;
    82B : 95;
    82C : 94;
    82D : 98;
    82E : b4;
    82F : 7a;
    830 : 3a;
    831 : 16;
    832 : 6b;
    833 : 84;
    834 : 7f;
    835 : ad;
    836 : ca;
    837 : a9;
    838 : 74;
    839 : 71;
    83A : 70;
    83B : 54;
    83C : 3b;
    83D : 5d;
    83E : 78;
    83F : 86;
    840 : 8a;
    841 : 8d;
    842 : bd;
    843 : a0;
    844 : 2a;
    845 : 1e;
    846 : 52;
    847 : 57;
    848 : 51;
    849 : 44;
    84A : 4d;
    84B : 56;
    84C : 4e;
    84D : 50;
    84E : 59;
    84F : 5b;
    850 : 4b;
    851 : 4f;
    852 : 4b;
    853 : 47;
    854 : 3c;
    855 : 3a;
    856 : 43;
    857 : 44;
    858 : 37;
    859 : 3b;
    85A : 3f;
    85B : 78;
    85C : 8f;
    85D : 89;
    85E : 8b;
    85F : 93;
    860 : 95;
    861 : 99;
    862 : a1;
    863 : a0;
    864 : a1;
    865 : a3;
    866 : 9e;
    867 : 27;
    868 : 5a;
    869 : 78;
    86A : 83;
    86B : 83;
    86C : 90;
    86D : 9e;
    86E : 7c;
    86F : 6d;
    870 : 8a;
    871 : 42;
    872 : 70;
    873 : 8c;
    874 : 87;
    875 : a6;
    876 : bb;
    877 : b5;
    878 : 8e;
    879 : 88;
    87A : 80;
    87B : 44;
    87C : 54;
    87D : 68;
    87E : 7a;
    87F : 87;
    880 : 93;
    881 : 96;
    882 : 93;
    883 : 90;
    884 : 31;
    885 : 11;
    886 : 3f;
    887 : 43;
    888 : 39;
    889 : 40;
    88A : 48;
    88B : 4e;
    88C : 57;
    88D : 5a;
    88E : 5c;
    88F : 5b;
    890 : 44;
    891 : 4f;
    892 : 55;
    893 : 53;
    894 : 46;
    895 : 3d;
    896 : 49;
    897 : 48;
    898 : 3f;
    899 : 3c;
    89A : 3d;
    89B : 7b;
    89C : 8f;
    89D : 8e;
    89E : 8f;
    89F : 92;
    8A0 : 98;
    8A1 : 9c;
    8A2 : a2;
    8A3 : 9f;
    8A4 : a3;
    8A5 : a7;
    8A6 : 7e;
    8A7 : 17;
    8A8 : 74;
    8A9 : 86;
    8AA : 7b;
    8AB : 77;
    8AC : 86;
    8AD : 91;
    8AE : 96;
    8AF : 57;
    8B0 : 59;
    8B1 : 7f;
    8B2 : 7d;
    8B3 : 87;
    8B4 : 95;
    8B5 : a8;
    8B6 : ba;
    8B7 : 8f;
    8B8 : 7f;
    8B9 : 94;
    8BA : 50;
    8BB : 43;
    8BC : 5e;
    8BD : 67;
    8BE : 79;
    8BF : 8e;
    8C0 : 9a;
    8C1 : 9a;
    8C2 : 98;
    8C3 : 81;
    8C4 : 24;
    8C5 : 0b;
    8C6 : 27;
    8C7 : 2d;
    8C8 : 2c;
    8C9 : 44;
    8CA : 54;
    8CB : 52;
    8CC : 59;
    8CD : 57;
    8CE : 5a;
    8CF : 5f;
    8D0 : 3f;
    8D1 : 47;
    8D2 : 4a;
    8D3 : 4d;
    8D4 : 4e;
    8D5 : 42;
    8D6 : 46;
    8D7 : 3f;
    8D8 : 38;
    8D9 : 2f;
    8DA : 37;
    8DB : 84;
    8DC : 94;
    8DD : 8e;
    8DE : 8e;
    8DF : 93;
    8E0 : 99;
    8E1 : 9d;
    8E2 : 9f;
    8E3 : 9d;
    8E4 : a2;
    8E5 : a4;
    8E6 : 4d;
    8E7 : 34;
    8E8 : 86;
    8E9 : 91;
    8EA : 83;
    8EB : 81;
    8EC : 80;
    8ED : 77;
    8EE : 75;
    8EF : 84;
    8F0 : 76;
    8F1 : 7d;
    8F2 : 76;
    8F3 : 8a;
    8F4 : 8a;
    8F5 : 6d;
    8F6 : 6e;
    8F7 : 72;
    8F8 : 83;
    8F9 : 75;
    8FA : 63;
    8FB : 5a;
    8FC : 76;
    8FD : 78;
    8FE : 83;
    8FF : 8c;
    900 : a3;
    901 : b4;
    902 : a9;
    903 : 87;
    904 : 1b;
    905 : 07;
    906 : 13;
    907 : 19;
    908 : 45;
    909 : 4c;
    90A : 55;
    90B : 56;
    90C : 5b;
    90D : 59;
    90E : 58;
    90F : 68;
    910 : 3d;
    911 : 44;
    912 : 41;
    913 : 44;
    914 : 4c;
    915 : 40;
    916 : 41;
    917 : 40;
    918 : 39;
    919 : 29;
    91A : 39;
    91B : 89;
    91C : 93;
    91D : 8b;
    91E : 8d;
    91F : 94;
    920 : 99;
    921 : 9f;
    922 : 9e;
    923 : 9e;
    924 : a1;
    925 : 8f;
    926 : 28;
    927 : 54;
    928 : 98;
    929 : 83;
    92A : 79;
    92B : 7e;
    92C : 78;
    92D : 76;
    92E : 78;
    92F : 79;
    930 : 89;
    931 : 81;
    932 : 86;
    933 : 85;
    934 : 8c;
    935 : 68;
    936 : 3a;
    937 : 5e;
    938 : 64;
    939 : 86;
    93A : 8a;
    93B : 93;
    93C : 8f;
    93D : 89;
    93E : 88;
    93F : 8a;
    940 : a0;
    941 : be;
    942 : b1;
    943 : 96;
    944 : 1f;
    945 : 05;
    946 : 06;
    947 : 30;
    948 : 54;
    949 : 50;
    94A : 52;
    94B : 56;
    94C : 5b;
    94D : 5b;
    94E : 66;
    94F : 97;
    950 : 3c;
    951 : 43;
    952 : 40;
    953 : 3f;
    954 : 46;
    955 : 41;
    956 : 3d;
    957 : 3e;
    958 : 35;
    959 : 25;
    95A : 41;
    95B : 8b;
    95C : 8f;
    95D : 8b;
    95E : 8f;
    95F : 96;
    960 : 9a;
    961 : 9f;
    962 : a0;
    963 : a1;
    964 : 9c;
    965 : 6d;
    966 : 21;
    967 : 60;
    968 : 86;
    969 : 70;
    96A : 79;
    96B : 76;
    96C : 78;
    96D : 78;
    96E : 7a;
    96F : 7c;
    970 : 79;
    971 : 81;
    972 : 86;
    973 : 88;
    974 : ab;
    975 : aa;
    976 : 6d;
    977 : 5f;
    978 : 73;
    979 : 7a;
    97A : 8c;
    97B : 92;
    97C : a5;
    97D : b7;
    97E : be;
    97F : aa;
    980 : 9c;
    981 : ad;
    982 : b4;
    983 : 9a;
    984 : 28;
    985 : 03;
    986 : 1d;
    987 : 4b;
    988 : 45;
    989 : 52;
    98A : 58;
    98B : 59;
    98C : 59;
    98D : 5d;
    98E : 8a;
    98F : d4;
    990 : 41;
    991 : 3f;
    992 : 3b;
    993 : 36;
    994 : 39;
    995 : 42;
    996 : 39;
    997 : 2e;
    998 : 27;
    999 : 1c;
    99A : 4c;
    99B : 91;
    99C : 8f;
    99D : 8b;
    99E : 90;
    99F : 97;
    9A0 : 9a;
    9A1 : 9f;
    9A2 : a0;
    9A3 : 9c;
    9A4 : 8d;
    9A5 : 4f;
    9A6 : 26;
    9A7 : 63;
    9A8 : 72;
    9A9 : 79;
    9AA : 7b;
    9AB : 7a;
    9AC : 74;
    9AD : 7c;
    9AE : 79;
    9AF : 83;
    9B0 : 81;
    9B1 : 81;
    9B2 : 80;
    9B3 : 97;
    9B4 : d0;
    9B5 : df;
    9B6 : 8c;
    9B7 : 5d;
    9B8 : 71;
    9B9 : 70;
    9BA : 89;
    9BB : 96;
    9BC : c2;
    9BD : db;
    9BE : d6;
    9BF : c4;
    9C0 : 9d;
    9C1 : a7;
    9C2 : a4;
    9C3 : 96;
    9C4 : 31;
    9C5 : 08;
    9C6 : 3f;
    9C7 : 41;
    9C8 : 43;
    9C9 : 53;
    9CA : 5a;
    9CB : 5a;
    9CC : 5e;
    9CD : 6e;
    9CE : b3;
    9CF : d7;
    9D0 : 41;
    9D1 : 43;
    9D2 : 47;
    9D3 : 37;
    9D4 : 25;
    9D5 : 35;
    9D6 : 37;
    9D7 : 30;
    9D8 : 47;
    9D9 : 28;
    9DA : 4e;
    9DB : 8c;
    9DC : 8f;
    9DD : 8e;
    9DE : 91;
    9DF : 94;
    9E0 : 9b;
    9E1 : 9f;
    9E2 : 9e;
    9E3 : 93;
    9E4 : 7c;
    9E5 : 3d;
    9E6 : 24;
    9E7 : 66;
    9E8 : 75;
    9E9 : 79;
    9EA : 7d;
    9EB : 7a;
    9EC : 7b;
    9ED : 78;
    9EE : 7d;
    9EF : 85;
    9F0 : 80;
    9F1 : 79;
    9F2 : 8c;
    9F3 : b4;
    9F4 : c2;
    9F5 : de;
    9F6 : aa;
    9F7 : 56;
    9F8 : 65;
    9F9 : 66;
    9FA : 78;
    9FB : 8f;
    9FC : a4;
    9FD : c2;
    9FE : bb;
    9FF : 9c;
    A00 : 90;
    A01 : 9d;
    A02 : 9c;
    A03 : 93;
    A04 : 2d;
    A05 : 1c;
    A06 : 3f;
    A07 : 46;
    A08 : 4d;
    A09 : 56;
    A0A : 5e;
    A0B : 5d;
    A0C : 5f;
    A0D : 79;
    A0E : cb;
    A0F : b5;
    A10 : 45;
    A11 : 44;
    A12 : 44;
    A13 : 32;
    A14 : 2a;
    A15 : 39;
    A16 : 42;
    A17 : 40;
    A18 : 44;
    A19 : 14;
    A1A : 60;
    A1B : 8c;
    A1C : 90;
    A1D : 8d;
    A1E : 94;
    A1F : 95;
    A20 : 98;
    A21 : 95;
    A22 : 96;
    A23 : 8b;
    A24 : 76;
    A25 : 39;
    A26 : 2c;
    A27 : 61;
    A28 : 75;
    A29 : 81;
    A2A : 81;
    A2B : 7d;
    A2C : 7a;
    A2D : 76;
    A2E : 80;
    A2F : 7a;
    A30 : 73;
    A31 : 7f;
    A32 : 8e;
    A33 : 9c;
    A34 : a0;
    A35 : b1;
    A36 : a3;
    A37 : 58;
    A38 : 56;
    A39 : 61;
    A3A : 6e;
    A3B : 77;
    A3C : 80;
    A3D : 8d;
    A3E : 96;
    A3F : 95;
    A40 : 93;
    A41 : 8e;
    A42 : 93;
    A43 : 8c;
    A44 : 21;
    A45 : 1f;
    A46 : 38;
    A47 : 43;
    A48 : 51;
    A49 : 58;
    A4A : 61;
    A4B : 5e;
    A4C : 60;
    A4D : 9a;
    A4E : b7;
    A4F : 73;
    A50 : 3b;
    A51 : 40;
    A52 : 38;
    A53 : 38;
    A54 : 44;
    A55 : 2e;
    A56 : 4c;
    A57 : 42;
    A58 : 34;
    A59 : 23;
    A5A : 74;
    A5B : 8d;
    A5C : 8c;
    A5D : 8d;
    A5E : 92;
    A5F : 97;
    A60 : 97;
    A61 : 93;
    A62 : 93;
    A63 : 85;
    A64 : 73;
    A65 : 35;
    A66 : 24;
    A67 : 60;
    A68 : 6a;
    A69 : 73;
    A6A : 7b;
    A6B : 7b;
    A6C : 79;
    A6D : 79;
    A6E : 7a;
    A6F : 74;
    A70 : 6c;
    A71 : 7e;
    A72 : 87;
    A73 : 88;
    A74 : 87;
    A75 : 8e;
    A76 : 85;
    A77 : 5b;
    A78 : 56;
    A79 : 60;
    A7A : 6a;
    A7B : 70;
    A7C : 77;
    A7D : 84;
    A7E : 8f;
    A7F : 92;
    A80 : 8a;
    A81 : 89;
    A82 : 8e;
    A83 : 87;
    A84 : 25;
    A85 : 1b;
    A86 : 38;
    A87 : 47;
    A88 : 54;
    A89 : 58;
    A8A : 5b;
    A8B : 5e;
    A8C : 6a;
    A8D : a0;
    A8E : 9b;
    A8F : 5c;
    A90 : 37;
    A91 : 38;
    A92 : 32;
    A93 : 3e;
    A94 : 24;
    A95 : 45;
    A96 : 55;
    A97 : 56;
    A98 : 28;
    A99 : 26;
    A9A : 7c;
    A9B : 93;
    A9C : 90;
    A9D : 93;
    A9E : 94;
    A9F : 96;
    AA0 : 96;
    AA1 : 92;
    AA2 : 91;
    AA3 : 80;
    AA4 : 73;
    AA5 : 34;
    AA6 : 1c;
    AA7 : 5d;
    AA8 : 61;
    AA9 : 5f;
    AAA : 67;
    AAB : 6d;
    AAC : 6d;
    AAD : 6f;
    AAE : 6b;
    AAF : 68;
    AB0 : 6d;
    AB1 : 73;
    AB2 : 7e;
    AB3 : 7e;
    AB4 : 79;
    AB5 : 80;
    AB6 : 77;
    AB7 : 5b;
    AB8 : 59;
    AB9 : 5f;
    ABA : 67;
    ABB : 6d;
    ABC : 75;
    ABD : 7e;
    ABE : 86;
    ABF : 8a;
    AC0 : 84;
    AC1 : 88;
    AC2 : 8d;
    AC3 : 74;
    AC4 : 1a;
    AC5 : 23;
    AC6 : 3b;
    AC7 : 48;
    AC8 : 4f;
    AC9 : 59;
    ACA : 5b;
    ACB : 60;
    ACC : 70;
    ACD : 9c;
    ACE : 7e;
    ACF : 54;
    AD0 : 44;
    AD1 : 42;
    AD2 : 3a;
    AD3 : 34;
    AD4 : 23;
    AD5 : 4c;
    AD6 : 49;
    AD7 : 6d;
    AD8 : 4d;
    AD9 : 37;
    ADA : 7c;
    ADB : 91;
    ADC : 8b;
    ADD : 90;
    ADE : 96;
    ADF : 96;
    AE0 : 94;
    AE1 : 90;
    AE2 : 90;
    AE3 : 7f;
    AE4 : 76;
    AE5 : 33;
    AE6 : 14;
    AE7 : 52;
    AE8 : 64;
    AE9 : 56;
    AEA : 55;
    AEB : 5f;
    AEC : 60;
    AED : 5f;
    AEE : 60;
    AEF : 63;
    AF0 : 69;
    AF1 : 6e;
    AF2 : 80;
    AF3 : 81;
    AF4 : 79;
    AF5 : 7b;
    AF6 : 71;
    AF7 : 62;
    AF8 : 61;
    AF9 : 62;
    AFA : 65;
    AFB : 6c;
    AFC : 75;
    AFD : 7c;
    AFE : 7f;
    AFF : 82;
    B00 : 83;
    B01 : 85;
    B02 : 8d;
    B03 : 64;
    B04 : 0c;
    B05 : 2d;
    B06 : 3d;
    B07 : 45;
    B08 : 4d;
    B09 : 5a;
    B0A : 5c;
    B0B : 5f;
    B0C : 6b;
    B0D : 87;
    B0E : 6b;
    B0F : 55;
    B10 : 31;
    B11 : 40;
    B12 : 35;
    B13 : 2f;
    B14 : 26;
    B15 : 2d;
    B16 : 50;
    B17 : 67;
    B18 : 57;
    B19 : 49;
    B1A : 81;
    B1B : 8f;
    B1C : 8a;
    B1D : 8f;
    B1E : 96;
    B1F : 97;
    B20 : 90;
    B21 : 8c;
    B22 : 8d;
    B23 : 7f;
    B24 : 76;
    B25 : 2e;
    B26 : 0e;
    B27 : 3c;
    B28 : 64;
    B29 : 5e;
    B2A : 59;
    B2B : 60;
    B2C : 5d;
    B2D : 58;
    B2E : 63;
    B2F : 67;
    B30 : 65;
    B31 : 6f;
    B32 : 7c;
    B33 : 7a;
    B34 : 7e;
    B35 : 79;
    B36 : 61;
    B37 : 5f;
    B38 : 66;
    B39 : 67;
    B3A : 66;
    B3B : 6a;
    B3C : 72;
    B3D : 76;
    B3E : 79;
    B3F : 7e;
    B40 : 81;
    B41 : 7f;
    B42 : 8b;
    B43 : 5b;
    B44 : 0b;
    B45 : 27;
    B46 : 42;
    B47 : 47;
    B48 : 50;
    B49 : 58;
    B4A : 58;
    B4B : 5a;
    B4C : 62;
    B4D : 6d;
    B4E : 5e;
    B4F : 4c;
    B50 : 1b;
    B51 : 20;
    B52 : 29;
    B53 : 23;
    B54 : 26;
    B55 : 30;
    B56 : 37;
    B57 : 45;
    B58 : 25;
    B59 : 49;
    B5A : 85;
    B5B : 8e;
    B5C : 90;
    B5D : 93;
    B5E : 96;
    B5F : 99;
    B60 : 8c;
    B61 : 8a;
    B62 : 8c;
    B63 : 82;
    B64 : 71;
    B65 : 25;
    B66 : 0e;
    B67 : 27;
    B68 : 52;
    B69 : 61;
    B6A : 66;
    B6B : 66;
    B6C : 62;
    B6D : 59;
    B6E : 68;
    B6F : 6b;
    B70 : 61;
    B71 : 65;
    B72 : 74;
    B73 : 7a;
    B74 : 81;
    B75 : 79;
    B76 : 5c;
    B77 : 56;
    B78 : 61;
    B79 : 67;
    B7A : 6a;
    B7B : 6e;
    B7C : 72;
    B7D : 72;
    B7E : 73;
    B7F : 79;
    B80 : 7c;
    B81 : 82;
    B82 : 8d;
    B83 : 4e;
    B84 : 08;
    B85 : 19;
    B86 : 48;
    B87 : 4c;
    B88 : 4f;
    B89 : 54;
    B8A : 57;
    B8B : 59;
    B8C : 5e;
    B8D : 5d;
    B8E : 5a;
    B8F : 49;
    B90 : 1b;
    B91 : 09;
    B92 : 0a;
    B93 : 28;
    B94 : 39;
    B95 : 35;
    B96 : 43;
    B97 : 2b;
    B98 : 19;
    B99 : 50;
    B9A : 84;
    B9B : 89;
    B9C : 8e;
    B9D : 90;
    B9E : 95;
    B9F : 98;
    BA0 : 8b;
    BA1 : 8c;
    BA2 : 8d;
    BA3 : 86;
    BA4 : 69;
    BA5 : 1b;
    BA6 : 12;
    BA7 : 18;
    BA8 : 3e;
    BA9 : 54;
    BAA : 66;
    BAB : 64;
    BAC : 66;
    BAD : 5a;
    BAE : 65;
    BAF : 6d;
    BB0 : 5f;
    BB1 : 5d;
    BB2 : 71;
    BB3 : 7d;
    BB4 : 7d;
    BB5 : 72;
    BB6 : 5c;
    BB7 : 57;
    BB8 : 5a;
    BB9 : 63;
    BBA : 67;
    BBB : 6b;
    BBC : 72;
    BBD : 72;
    BBE : 72;
    BBF : 78;
    BC0 : 7e;
    BC1 : 88;
    BC2 : 92;
    BC3 : 47;
    BC4 : 04;
    BC5 : 14;
    BC6 : 39;
    BC7 : 4c;
    BC8 : 4f;
    BC9 : 52;
    BCA : 58;
    BCB : 59;
    BCC : 5a;
    BCD : 57;
    BCE : 56;
    BCF : 48;
    BD0 : 32;
    BD1 : 35;
    BD2 : 1f;
    BD3 : 1b;
    BD4 : 24;
    BD5 : 2c;
    BD6 : 28;
    BD7 : 30;
    BD8 : 34;
    BD9 : 5c;
    BDA : 85;
    BDB : 8e;
    BDC : 90;
    BDD : 90;
    BDE : 98;
    BDF : 96;
    BE0 : 8b;
    BE1 : 8e;
    BE2 : 8f;
    BE3 : 88;
    BE4 : 62;
    BE5 : 14;
    BE6 : 16;
    BE7 : 12;
    BE8 : 35;
    BE9 : 45;
    BEA : 5e;
    BEB : 5e;
    BEC : 68;
    BED : 5a;
    BEE : 60;
    BEF : 6f;
    BF0 : 6a;
    BF1 : 61;
    BF2 : 64;
    BF3 : 6f;
    BF4 : 7d;
    BF5 : 71;
    BF6 : 55;
    BF7 : 55;
    BF8 : 59;
    BF9 : 5e;
    BFA : 5c;
    BFB : 60;
    BFC : 6d;
    BFD : 73;
    BFE : 75;
    BFF : 7b;
    C00 : 85;
    C01 : 86;
    C02 : 95;
    C03 : 4e;
    C04 : 08;
    C05 : 17;
    C06 : 1c;
    C07 : 48;
    C08 : 56;
    C09 : 53;
    C0A : 55;
    C0B : 54;
    C0C : 55;
    C0D : 54;
    C0E : 4c;
    C0F : 3f;
    C10 : 35;
    C11 : 51;
    C12 : 51;
    C13 : 30;
    C14 : 1e;
    C15 : 17;
    C16 : 19;
    C17 : 26;
    C18 : 26;
    C19 : 6d;
    C1A : 85;
    C1B : 87;
    C1C : 90;
    C1D : 90;
    C1E : 98;
    C1F : 9c;
    C20 : 92;
    C21 : 99;
    C22 : 90;
    C23 : 8d;
    C24 : 53;
    C25 : 11;
    C26 : 11;
    C27 : 12;
    C28 : 25;
    C29 : 46;
    C2A : 5b;
    C2B : 5e;
    C2C : 61;
    C2D : 65;
    C2E : 56;
    C2F : 67;
    C30 : 70;
    C31 : 62;
    C32 : 5c;
    C33 : 6a;
    C34 : 7a;
    C35 : 7a;
    C36 : 5f;
    C37 : 53;
    C38 : 60;
    C39 : 64;
    C3A : 67;
    C3B : 66;
    C3C : 66;
    C3D : 6e;
    C3E : 78;
    C3F : 7c;
    C40 : 83;
    C41 : 89;
    C42 : 8c;
    C43 : 50;
    C44 : 0d;
    C45 : 29;
    C46 : 1d;
    C47 : 19;
    C48 : 40;
    C49 : 53;
    C4A : 54;
    C4B : 4b;
    C4C : 49;
    C4D : 42;
    C4E : 48;
    C4F : 41;
    C50 : 3f;
    C51 : 4a;
    C52 : 4a;
    C53 : 42;
    C54 : 32;
    C55 : 16;
    C56 : 0b;
    C57 : 18;
    C58 : 25;
    C59 : 79;
    C5A : 85;
    C5B : 88;
    C5C : 8d;
    C5D : 91;
    C5E : 99;
    C5F : 99;
    C60 : 96;
    C61 : 9c;
    C62 : 96;
    C63 : 8b;
    C64 : 3d;
    C65 : 0c;
    C66 : 14;
    C67 : 15;
    C68 : 1c;
    C69 : 41;
    C6A : 58;
    C6B : 5f;
    C6C : 63;
    C6D : 65;
    C6E : 54;
    C6F : 5b;
    C70 : 6d;
    C71 : 64;
    C72 : 58;
    C73 : 63;
    C74 : 79;
    C75 : 7a;
    C76 : 5e;
    C77 : 54;
    C78 : 59;
    C79 : 64;
    C7A : 70;
    C7B : 73;
    C7C : 70;
    C7D : 72;
    C7E : 77;
    C7F : 7a;
    C80 : 85;
    C81 : 85;
    C82 : 8d;
    C83 : 44;
    C84 : 07;
    C85 : 3e;
    C86 : 44;
    C87 : 11;
    C88 : 09;
    C89 : 24;
    C8A : 38;
    C8B : 44;
    C8C : 46;
    C8D : 40;
    C8E : 46;
    C8F : 44;
    C90 : 52;
    C91 : 55;
    C92 : 49;
    C93 : 45;
    C94 : 3f;
    C95 : 2e;
    C96 : 26;
    C97 : 28;
    C98 : 37;
    C99 : 87;
    C9A : 83;
    C9B : 89;
    C9C : 8d;
    C9D : 91;
    C9E : 96;
    C9F : 95;
    CA0 : 91;
    CA1 : 99;
    CA2 : 98;
    CA3 : 83;
    CA4 : 22;
    CA5 : 0e;
    CA6 : 16;
    CA7 : 16;
    CA8 : 17;
    CA9 : 3c;
    CAA : 53;
    CAB : 5d;
    CAC : 61;
    CAD : 63;
    CAE : 50;
    CAF : 51;
    CB0 : 64;
    CB1 : 66;
    CB2 : 5a;
    CB3 : 5d;
    CB4 : 6d;
    CB5 : 6a;
    CB6 : 53;
    CB7 : 55;
    CB8 : 5b;
    CB9 : 62;
    CBA : 6b;
    CBB : 73;
    CBC : 79;
    CBD : 7d;
    CBE : 7d;
    CBF : 7c;
    CC0 : 8c;
    CC1 : 84;
    CC2 : 90;
    CC3 : 38;
    CC4 : 00;
    CC5 : 23;
    CC6 : 5c;
    CC7 : 38;
    CC8 : 08;
    CC9 : 25;
    CCA : 39;
    CCB : 46;
    CCC : 48;
    CCD : 47;
    CCE : 46;
    CCF : 40;
    CD0 : 6a;
    CD1 : 77;
    CD2 : 6a;
    CD3 : 5e;
    CD4 : 58;
    CD5 : 57;
    CD6 : 54;
    CD7 : 4a;
    CD8 : 57;
    CD9 : 89;
    CDA : 7e;
    CDB : 89;
    CDC : 8f;
    CDD : 93;
    CDE : 95;
    CDF : 93;
    CE0 : 8f;
    CE1 : 98;
    CE2 : 99;
    CE3 : 6b;
    CE4 : 0e;
    CE5 : 14;
    CE6 : 16;
    CE7 : 17;
    CE8 : 1a;
    CE9 : 34;
    CEA : 4d;
    CEB : 57;
    CEC : 5b;
    CED : 63;
    CEE : 50;
    CEF : 56;
    CF0 : 68;
    CF1 : 68;
    CF2 : 5a;
    CF3 : 5d;
    CF4 : 6c;
    CF5 : 67;
    CF6 : 51;
    CF7 : 51;
    CF8 : 5e;
    CF9 : 65;
    CFA : 6d;
    CFB : 72;
    CFC : 76;
    CFD : 77;
    CFE : 7a;
    CFF : 7e;
    D00 : 85;
    D01 : 87;
    D02 : 7f;
    D03 : 25;
    D04 : 07;
    D05 : 0a;
    D06 : 1b;
    D07 : 1e;
    D08 : 13;
    D09 : 38;
    D0A : 49;
    D0B : 50;
    D0C : 4b;
    D0D : 48;
    D0E : 44;
    D0F : 45;
    D10 : 82;
    D11 : 92;
    D12 : 86;
    D13 : 7a;
    D14 : 6a;
    D15 : 5e;
    D16 : 54;
    D17 : 49;
    D18 : 6b;
    D19 : 7e;
    D1A : 7d;
    D1B : 86;
    D1C : 8f;
    D1D : 96;
    D1E : 97;
    D1F : 95;
    D20 : 98;
    D21 : 9d;
    D22 : 9c;
    D23 : 45;
    D24 : 08;
    D25 : 15;
    D26 : 18;
    D27 : 1d;
    D28 : 1f;
    D29 : 2c;
    D2A : 47;
    D2B : 52;
    D2C : 58;
    D2D : 66;
    D2E : 53;
    D2F : 5f;
    D30 : 6a;
    D31 : 68;
    D32 : 5d;
    D33 : 64;
    D34 : 6d;
    D35 : 64;
    D36 : 51;
    D37 : 4f;
    D38 : 53;
    D39 : 5c;
    D3A : 65;
    D3B : 6e;
    D3C : 74;
    D3D : 74;
    D3E : 75;
    D3F : 7a;
    D40 : 85;
    D41 : 83;
    D42 : 70;
    D43 : 0c;
    D44 : 04;
    D45 : 0a;
    D46 : 0b;
    D47 : 09;
    D48 : 1c;
    D49 : 40;
    D4A : 4e;
    D4B : 51;
    D4C : 4d;
    D4D : 46;
    D4E : 40;
    D4F : 4a;
    D50 : 8f;
    D51 : 9b;
    D52 : 8f;
    D53 : 88;
    D54 : 7a;
    D55 : 6b;
    D56 : 54;
    D57 : 46;
    D58 : 6f;
    D59 : 75;
    D5A : 81;
    D5B : 84;
    D5C : 8d;
    D5D : 97;
    D5E : 97;
    D5F : 95;
    D60 : 9c;
    D61 : a0;
    D62 : 96;
    D63 : 28;
    D64 : 13;
    D65 : 18;
    D66 : 1e;
    D67 : 22;
    D68 : 23;
    D69 : 27;
    D6A : 40;
    D6B : 4e;
    D6C : 57;
    D6D : 66;
    D6E : 54;
    D6F : 5d;
    D70 : 69;
    D71 : 6d;
    D72 : 64;
    D73 : 69;
    D74 : 6b;
    D75 : 5e;
    D76 : 4c;
    D77 : 4a;
    D78 : 45;
    D79 : 4b;
    D7A : 54;
    D7B : 62;
    D7C : 71;
    D7D : 74;
    D7E : 74;
    D7F : 79;
    D80 : 87;
    D81 : 8b;
    D82 : 47;
    D83 : 0b;
    D84 : 1b;
    D85 : 0d;
    D86 : 04;
    D87 : 03;
    D88 : 10;
    D89 : 37;
    D8A : 4c;
    D8B : 4c;
    D8C : 4a;
    D8D : 49;
    D8E : 47;
    D8F : 4b;
    D90 : 8b;
    D91 : a1;
    D92 : 9b;
    D93 : 91;
    D94 : 85;
    D95 : 7a;
    D96 : 5a;
    D97 : 49;
    D98 : 70;
    D99 : 74;
    D9A : 83;
    D9B : 84;
    D9C : 8f;
    D9D : 96;
    D9E : 95;
    D9F : 96;
    DA0 : 9c;
    DA1 : a1;
    DA2 : 78;
    DA3 : 18;
    DA4 : 1c;
    DA5 : 20;
    DA6 : 21;
    DA7 : 23;
    DA8 : 24;
    DA9 : 25;
    DAA : 33;
    DAB : 46;
    DAC : 53;
    DAD : 62;
    DAE : 55;
    DAF : 53;
    DB0 : 6c;
    DB1 : 74;
    DB2 : 66;
    DB3 : 67;
    DB4 : 6f;
    DB5 : 62;
    DB6 : 48;
    DB7 : 3f;
    DB8 : 40;
    DB9 : 4a;
    DBA : 54;
    DBB : 60;
    DBC : 6b;
    DBD : 6c;
    DBE : 71;
    DBF : 7d;
    DC0 : 84;
    DC1 : 5f;
    DC2 : 31;
    DC3 : 5c;
    DC4 : 68;
    DC5 : 5b;
    DC6 : 39;
    DC7 : 1d;
    DC8 : 07;
    DC9 : 20;
    DCA : 3d;
    DCB : 44;
    DCC : 44;
    DCD : 4b;
    DCE : 53;
    DCF : 52;
    DD0 : a8;
    DD1 : c5;
    DD2 : bf;
    DD3 : a4;
    DD4 : 86;
    DD5 : 74;
    DD6 : 55;
    DD7 : 4e;
    DD8 : 72;
    DD9 : 76;
    DDA : 7f;
    DDB : 85;
    DDC : 93;
    DDD : 97;
    DDE : 94;
    DDF : 9a;
    DE0 : 9f;
    DE1 : a2;
    DE2 : 58;
    DE3 : 0f;
    DE4 : 18;
    DE5 : 25;
    DE6 : 20;
    DE7 : 22;
    DE8 : 21;
    DE9 : 22;
    DEA : 25;
    DEB : 3d;
    DEC : 4e;
    DED : 5f;
    DEE : 59;
    DEF : 4e;
    DF0 : 61;
    DF1 : 76;
    DF2 : 68;
    DF3 : 63;
    DF4 : 6b;
    DF5 : 5c;
    DF6 : 41;
    DF7 : 3d;
    DF8 : 43;
    DF9 : 4a;
    DFA : 53;
    DFB : 62;
    DFC : 71;
    DFD : 74;
    DFE : 77;
    DFF : 81;
    E00 : 69;
    E01 : 10;
    E02 : 44;
    E03 : 70;
    E04 : 83;
    E05 : 83;
    E06 : 78;
    E07 : 61;
    E08 : 49;
    E09 : 26;
    E0A : 27;
    E0B : 38;
    E0C : 45;
    E0D : 4d;
    E0E : 58;
    E0F : 54;
    E10 : b3;
    E11 : d7;
    E12 : d0;
    E13 : a2;
    E14 : 82;
    E15 : 63;
    E16 : 38;
    E17 : 38;
    E18 : 5e;
    E19 : 66;
    E1A : 75;
    E1B : 7d;
    E1C : 91;
    E1D : 97;
    E1E : 97;
    E1F : 9e;
    E20 : a0;
    E21 : 9a;
    E22 : 28;
    E23 : 17;
    E24 : 21;
    E25 : 1f;
    E26 : 23;
    E27 : 20;
    E28 : 20;
    E29 : 23;
    E2A : 21;
    E2B : 2f;
    E2C : 46;
    E2D : 64;
    E2E : 5e;
    E2F : 47;
    E30 : 52;
    E31 : 5e;
    E32 : 60;
    E33 : 64;
    E34 : 5f;
    E35 : 51;
    E36 : 39;
    E37 : 31;
    E38 : 35;
    E39 : 3d;
    E3A : 45;
    E3B : 53;
    E3C : 6a;
    E3D : 77;
    E3E : 6c;
    E3F : 5d;
    E40 : 1c;
    E41 : 34;
    E42 : 4e;
    E43 : 6f;
    E44 : 96;
    E45 : ae;
    E46 : b2;
    E47 : 8f;
    E48 : 79;
    E49 : 6f;
    E4A : 67;
    E4B : 45;
    E4C : 42;
    E4D : 4a;
    E4E : 53;
    E4F : 52;
    E50 : 9c;
    E51 : b5;
    E52 : aa;
    E53 : 93;
    E54 : 75;
    E55 : 54;
    E56 : 43;
    E57 : 4a;
    E58 : 65;
    E59 : 6a;
    E5A : 73;
    E5B : 76;
    E5C : 87;
    E5D : 8e;
    E5E : 90;
    E5F : 97;
    E60 : a4;
    E61 : 5b;
    E62 : 0a;
    E63 : 14;
    E64 : 19;
    E65 : 1a;
    E66 : 24;
    E67 : 1e;
    E68 : 1e;
    E69 : 1d;
    E6A : 22;
    E6B : 23;
    E6C : 3c;
    E6D : 59;
    E6E : 5f;
    E6F : 4d;
    E70 : 4a;
    E71 : 4e;
    E72 : 4a;
    E73 : 56;
    E74 : 60;
    E75 : 46;
    E76 : 25;
    E77 : 25;
    E78 : 34;
    E79 : 2e;
    E7A : 30;
    E7B : 36;
    E7C : 34;
    E7D : 41;
    E7E : 8f;
    E7F : 97;
    E80 : 89;
    E81 : 6a;
    E82 : 57;
    E83 : 6d;
    E84 : 7f;
    E85 : b7;
    E86 : dc;
    E87 : d9;
    E88 : c6;
    E89 : c6;
    E8A : c3;
    E8B : af;
    E8C : 75;
    E8D : 54;
    E8E : 47;
    E8F : 46;
    E90 : 92;
    E91 : a0;
    E92 : 97;
    E93 : 94;
    E94 : 97;
    E95 : 9e;
    E96 : a2;
    E97 : a0;
    E98 : a4;
    E99 : a3;
    E9A : a2;
    E9B : 9a;
    E9C : 9d;
    E9D : 9b;
    E9E : 97;
    E9F : 99;
    EA0 : 8f;
    EA1 : 44;
    EA2 : 35;
    EA3 : 32;
    EA4 : 28;
    EA5 : 1f;
    EA6 : 09;
    EA7 : 0b;
    EA8 : 13;
    EA9 : 1a;
    EAA : 1c;
    EAB : 19;
    EAC : 22;
    EAD : 3e;
    EAE : 5a;
    EAF : 3e;
    EB0 : 3e;
    EB1 : 43;
    EB2 : 4e;
    EB3 : 51;
    EB4 : 3f;
    EB5 : 19;
    EB6 : 0d;
    EB7 : 1c;
    EB8 : 23;
    EB9 : 22;
    EBA : 1f;
    EBB : 1a;
    EBC : 08;
    EBD : 25;
    EBE : a4;
    EBF : af;
    EC0 : 81;
    EC1 : 50;
    EC2 : 4a;
    EC3 : 68;
    EC4 : 82;
    EC5 : 9c;
    EC6 : c0;
    EC7 : cb;
    EC8 : ce;
    EC9 : d2;
    ECA : e2;
    ECB : d3;
    ECC : 90;
    ECD : 7c;
    ECE : 5f;
    ECF : 49;
    ED0 : 89;
    ED1 : 97;
    ED2 : a2;
    ED3 : a5;
    ED4 : a4;
    ED5 : a6;
    ED6 : 9f;
    ED7 : a2;
    ED8 : 9d;
    ED9 : a0;
    EDA : a2;
    EDB : 9f;
    EDC : a5;
    EDD : a4;
    EDE : a4;
    EDF : a4;
    EE0 : a3;
    EE1 : a4;
    EE2 : a6;
    EE3 : a1;
    EE4 : a0;
    EE5 : 91;
    EE6 : 71;
    EE7 : 4e;
    EE8 : 2b;
    EE9 : 13;
    EEA : 0d;
    EEB : 1b;
    EEC : 11;
    EED : 15;
    EEE : 27;
    EEF : 20;
    EF0 : 23;
    EF1 : 3c;
    EF2 : 4f;
    EF3 : 3a;
    EF4 : 1e;
    EF5 : 0c;
    EF6 : 0f;
    EF7 : 0f;
    EF8 : 12;
    EF9 : 16;
    EFA : 1a;
    EFB : 0c;
    EFC : 0e;
    EFD : 10;
    EFE : 0b;
    EFF : 12;
    F00 : 13;
    F01 : 2a;
    F02 : 46;
    F03 : 64;
    F04 : 6c;
    F05 : 72;
    F06 : 80;
    F07 : 90;
    F08 : 95;
    F09 : a1;
    F0A : b5;
    F0B : c1;
    F0C : 93;
    F0D : 60;
    F0E : 62;
    F0F : 5c;
    F10 : 6c;
    F11 : 90;
    F12 : a5;
    F13 : a8;
    F14 : a8;
    F15 : aa;
    F16 : a0;
    F17 : a0;
    F18 : a0;
    F19 : a2;
    F1A : a5;
    F1B : a5;
    F1C : a9;
    F1D : a5;
    F1E : a6;
    F1F : a6;
    F20 : a3;
    F21 : ab;
    F22 : a7;
    F23 : ad;
    F24 : b0;
    F25 : b1;
    F26 : b8;
    F27 : ab;
    F28 : a4;
    F29 : 8d;
    F2A : 68;
    F2B : 32;
    F2C : 12;
    F2D : 15;
    F2E : 15;
    F2F : 13;
    F30 : 1a;
    F31 : 31;
    F32 : 36;
    F33 : 21;
    F34 : 1a;
    F35 : 15;
    F36 : 14;
    F37 : 11;
    F38 : 0e;
    F39 : 0b;
    F3A : 07;
    F3B : 09;
    F3C : 03;
    F3D : 02;
    F3E : 0c;
    F3F : 2d;
    F40 : 49;
    F41 : 5a;
    F42 : 57;
    F43 : 59;
    F44 : 5e;
    F45 : 58;
    F46 : 56;
    F47 : 58;
    F48 : 54;
    F49 : 5a;
    F4A : 5f;
    F4B : 5d;
    F4C : 6a;
    F4D : 66;
    F4E : 69;
    F4F : 59;
    F50 : 3b;
    F51 : 87;
    F52 : a9;
    F53 : b0;
    F54 : ac;
    F55 : aa;
    F56 : aa;
    F57 : a4;
    F58 : a4;
    F59 : a4;
    F5A : a6;
    F5B : a9;
    F5C : aa;
    F5D : a5;
    F5E : aa;
    F5F : ad;
    F60 : b8;
    F61 : b2;
    F62 : b8;
    F63 : c3;
    F64 : c6;
    F65 : c7;
    F66 : be;
    F67 : c2;
    F68 : c0;
    F69 : c3;
    F6A : bb;
    F6B : b2;
    F6C : 91;
    F6D : 33;
    F6E : 1e;
    F6F : 34;
    F70 : 3a;
    F71 : 3f;
    F72 : 46;
    F73 : 4a;
    F74 : 51;
    F75 : 54;
    F76 : 4f;
    F77 : 44;
    F78 : 3b;
    F79 : 35;
    F7A : 2a;
    F7B : 22;
    F7C : 2b;
    F7D : 3c;
    F7E : 4b;
    F7F : 56;
    F80 : 60;
    F81 : 5b;
    F82 : 56;
    F83 : 51;
    F84 : 57;
    F85 : 4c;
    F86 : 55;
    F87 : 59;
    F88 : 58;
    F89 : 59;
    F8A : 5c;
    F8B : 63;
    F8C : 5c;
    F8D : 7b;
    F8E : aa;
    F8F : 8f;
    F90 : 56;
    F91 : 8a;
    F92 : 9f;
    F93 : ad;
    F94 : ae;
    F95 : a9;
    F96 : a9;
    F97 : a5;
    F98 : a2;
    F99 : a3;
    F9A : a9;
    F9B : b1;
    F9C : b4;
    F9D : ae;
    F9E : b7;
    F9F : bc;
    FA0 : be;
    FA1 : cb;
    FA2 : c0;
    FA3 : b6;
    FA4 : ae;
    FA5 : b0;
    FA6 : bb;
    FA7 : bc;
    FA8 : bd;
    FA9 : c4;
    FAA : b6;
    FAB : c3;
    FAC : c2;
    FAD : 76;
    FAE : 5a;
    FAF : 44;
    FB0 : 37;
    FB1 : 41;
    FB2 : 56;
    FB3 : 5f;
    FB4 : 55;
    FB5 : 5c;
    FB6 : 64;
    FB7 : 5e;
    FB8 : 5e;
    FB9 : 5c;
    FBA : 58;
    FBB : 5d;
    FBC : 69;
    FBD : 86;
    FBE : 96;
    FBF : 68;
    FC0 : 50;
    FC1 : 57;
    FC2 : 58;
    FC3 : 5b;
    FC4 : 50;
    FC5 : 66;
    FC6 : 56;
    FC7 : 51;
    FC8 : 59;
    FC9 : 60;
    FCA : 58;
    FCB : 5c;
    FCC : 76;
    FCD : aa;
    FCE : ab;
    FCF : aa;
    FD0 : 60;
    FD1 : 8a;
    FD2 : a1;
    FD3 : a5;
    FD4 : a4;
    FD5 : aa;
    FD6 : a9;
    FD7 : a5;
    FD8 : a3;
    FD9 : a4;
    FDA : ac;
    FDB : b5;
    FDC : b4;
    FDD : a8;
    FDE : af;
    FDF : b3;
    FE0 : a7;
    FE1 : 98;
    FE2 : 98;
    FE3 : 9f;
    FE4 : a4;
    FE5 : ab;
    FE6 : b2;
    FE7 : b7;
    FE8 : b9;
    FE9 : b5;
    FEA : b5;
    FEB : ae;
    FEC : b0;
    FED : b8;
    FEE : ba;
    FEF : ae;
    FF0 : 98;
    FF1 : 6c;
    FF2 : 4d;
    FF3 : 5a;
    FF4 : 62;
    FF5 : 61;
    FF6 : 59;
    FF7 : 5d;
    FF8 : 57;
    FF9 : 51;
    FFA : 5e;
    FFB : 68;
    FFC : 7f;
    FFD : a2;
    FFE : 9d;
    FFF : 92;
    1000 : 52;
    1001 : 4f;
    1002 : 52;
    1003 : 4f;
    1004 : 56;
    1005 : 7b;
    1006 : 60;
    1007 : 57;
    1008 : 58;
    1009 : 5f;
    100A : 5f;
    100B : 68;
    100C : 7d;
    100D : b6;
    100E : b4;
    100F : bc;
    1010 : xx;
    1011 : xx;
    1012 : xx;
    1013 : xx;
    1014 : xx;
    1015 : xx;
    1016 : xx;
    1017 : xx;
    1018 : xx;
    1019 : xx;
    101A : xx;
    101B : xx;
    101C : xx;
    101D : xx;
    101E : xx;
    101F : xx;
    1020 : 6f;
    1021 : 6b;
    1022 : 71;
    1023 : 7b;
    1024 : a6;
    1025 : 9e;
    1026 : 8c;
    1027 : 5f;
    1028 : 58;
    1029 : 65;
    102A : 5e;
    102B : 64;
    102C : 84;
    102D : 6c;
    102E : 6b;
    102F : 58;
    1030 : 83;
    1031 : 7b;
    1032 : 79;
    1033 : 8a;
    1034 : a7;
    1035 : a9;
    1036 : a7;
    1037 : 94;
    1038 : 5b;
    1039 : 5f;
    103A : 65;
    103B : 69;
    103C : 96;
    103D : 7e;
    103E : 62;
    103F : 5c;
    1040 : 84;
    1041 : 89;
    1042 : 8d;
    1043 : 99;
    1044 : 97;
    1045 : 9e;
    1046 : a0;
    1047 : 9f;
    1048 : 76;
    1049 : 57;
    104A : 60;
    104B : 73;
    104C : c0;
    104D : af;
    104E : 64;
    104F : 5c;
    1050 : 8c;
    1051 : 93;
    1052 : 9c;
    1053 : a0;
    1054 : 9f;
    1055 : bd;
    1056 : b5;
    1057 : aa;
    1058 : 88;
    1059 : 5b;
    105A : 62;
    105B : 73;
    105C : c7;
    105D : ce;
    105E : 71;
    105F : 5a;
    1060 : 90;
    1061 : 99;
    1062 : aa;
    1063 : a1;
    1064 : a4;
    1065 : ca;
    1066 : ba;
    1067 : a8;
    1068 : 79;
    1069 : 5b;
    106A : 65;
    106B : 70;
    106C : b9;
    106D : e0;
    106E : 8d;
    106F : 56;
    1070 : 92;
    1071 : a0;
    1072 : b7;
    1073 : a4;
    1074 : 98;
    1075 : aa;
    1076 : a2;
    1077 : 9f;
    1078 : 7a;
    1079 : 59;
    107A : 61;
    107B : 6e;
    107C : a4;
    107D : d2;
    107E : 9a;
    107F : 5a;
    1080 : 8e;
    1081 : 97;
    1082 : a1;
    1083 : 9a;
    1084 : 95;
    1085 : 99;
    1086 : 9d;
    1087 : a3;
    1088 : 8a;
    1089 : 5b;
    108A : 60;
    108B : 66;
    108C : 7d;
    108D : 94;
    108E : 87;
    108F : 67;
    1090 : 88;
    1091 : 91;
    1092 : 93;
    1093 : a1;
    1094 : a5;
    1095 : 9e;
    1096 : a2;
    1097 : a1;
    1098 : 87;
    1099 : 55;
    109A : 61;
    109B : 63;
    109C : 6a;
    109D : 70;
    109E : 79;
    109F : 6c;
    10A0 : 87;
    10A1 : 90;
    10A2 : 92;
    10A3 : a3;
    10A4 : b3;
    10A5 : a1;
    10A6 : 9d;
    10A7 : a2;
    10A8 : 7e;
    10A9 : 4f;
    10AA : 5c;
    10AB : 5f;
    10AC : 61;
    10AD : 64;
    10AE : 71;
    10AF : 6f;
    10B0 : 86;
    10B1 : 8d;
    10B2 : 94;
    10B3 : a2;
    10B4 : aa;
    10B5 : 9e;
    10B6 : a0;
    10B7 : a4;
    10B8 : 7a;
    10B9 : 4c;
    10BA : 57;
    10BB : 5e;
    10BC : 66;
    10BD : 62;
    10BE : 67;
    10BF : 6e;
    10C0 : 86;
    10C1 : 88;
    10C2 : 96;
    10C3 : a1;
    10C4 : a4;
    10C5 : 9f;
    10C6 : a3;
    10C7 : a4;
    10C8 : 6a;
    10C9 : 44;
    10CA : 59;
    10CB : 57;
    10CC : 5f;
    10CD : 69;
    10CE : 6a;
    10CF : 71;
    10D0 : 84;
    10D1 : 85;
    10D2 : 96;
    10D3 : 9f;
    10D4 : a4;
    10D5 : a1;
    10D6 : a2;
    10D7 : a1;
    10D8 : 68;
    10D9 : 48;
    10DA : 4e;
    10DB : 5d;
    10DC : 63;
    10DD : 60;
    10DE : 68;
    10DF : 5e;
    10E0 : 85;
    10E1 : 88;
    10E2 : 96;
    10E3 : 9d;
    10E4 : a3;
    10E5 : a0;
    10E6 : a0;
    10E7 : a2;
    10E8 : 59;
    10E9 : 36;
    10EA : 47;
    10EB : 48;
    10EC : 4c;
    10ED : 4a;
    10EE : 42;
    10EF : 53;
    10F0 : 8a;
    10F1 : 91;
    10F2 : 9c;
    10F3 : 9e;
    10F4 : a0;
    10F5 : 9e;
    10F6 : a2;
    10F7 : a1;
    10F8 : 3f;
    10F9 : 22;
    10FA : 27;
    10FB : 31;
    10FC : 44;
    10FD : 46;
    10FE : 51;
    10FF : 81;
    1100 : 8f;
    1101 : 96;
    1102 : 9f;
    1103 : a1;
    1104 : 9f;
    1105 : a0;
    1106 : a5;
    1107 : 95;
    1108 : 43;
    1109 : 31;
    110A : 4d;
    110B : 69;
    110C : 7b;
    110D : 72;
    110E : 5d;
    110F : 6e;
    1110 : 8f;
    1111 : 94;
    1112 : 9e;
    1113 : a2;
    1114 : 9f;
    1115 : a3;
    1116 : a6;
    1117 : 83;
    1118 : 34;
    1119 : 5b;
    111A : 80;
    111B : 8d;
    111C : 87;
    111D : 88;
    111E : 80;
    111F : 4a;
    1120 : xx;
    1121 : xx;
    1122 : xx;
    1123 : xx;
    1124 : xx;
    1125 : xx;
    1126 : xx;
    1127 : xx;
    1128 : xx;
    1129 : xx;
    112A : xx;
    112B : xx;
    112C : xx;
    112D : xx;
    112E : xx;
    112F : xx;
    1130 : 6f;
    1131 : 6d;
    1132 : 6b;
    1133 : 6d;
    1134 : 70;
    1135 : 75;
    1136 : 79;
    1137 : 8b;
    1138 : 9f;
    1139 : a3;
    113A : 9f;
    113B : 98;
    113C : 8f;
    113D : 7f;
    113E : 69;
    113F : 5d;
    1140 : 59;
    1141 : 5a;
    1142 : 61;
    1143 : 63;
    1144 : 60;
    1145 : 5e;
    1146 : 61;
    1147 : 68;
    1148 : 77;
    1149 : 81;
    114A : 76;
    114B : 6b;
    114C : 6b;
    114D : 6a;
    114E : 61;
    114F : 58;
    1150 : 78;
    1151 : 75;
    1152 : 72;
    1153 : 73;
    1154 : 74;
    1155 : 7a;
    1156 : 80;
    1157 : 8f;
    1158 : a1;
    1159 : a5;
    115A : a3;
    115B : 9f;
    115C : 9a;
    115D : 8f;
    115E : 7f;
    115F : 70;
    1160 : 61;
    1161 : 5b;
    1162 : 5f;
    1163 : 62;
    1164 : 61;
    1165 : 62;
    1166 : 64;
    1167 : 6b;
    1168 : 7d;
    1169 : 8a;
    116A : 7e;
    116B : 73;
    116C : 6c;
    116D : 66;
    116E : 60;
    116F : 59;
    1170 : 82;
    1171 : 7e;
    1172 : 7a;
    1173 : 79;
    1174 : 78;
    1175 : 7f;
    1176 : 87;
    1177 : 94;
    1178 : a2;
    1179 : a7;
    117A : a8;
    117B : a7;
    117C : a6;
    117D : a0;
    117E : 96;
    117F : 83;
    1180 : 69;
    1181 : 5b;
    1182 : 5d;
    1183 : 60;
    1184 : 62;
    1185 : 65;
    1186 : 67;
    1187 : 6e;
    1188 : 83;
    1189 : 92;
    118A : 87;
    118B : 7b;
    118C : 6e;
    118D : 62;
    118E : 5f;
    118F : 5b;
    1190 : 83;
    1191 : 82;
    1192 : 81;
    1193 : 81;
    1194 : 81;
    1195 : 87;
    1196 : 8e;
    1197 : 96;
    1198 : 9d;
    1199 : a1;
    119A : a3;
    119B : a4;
    119C : a3;
    119D : a0;
    119E : 9b;
    119F : 8c;
    11A0 : 74;
    11A1 : 64;
    11A2 : 5e;
    11A3 : 5c;
    11A4 : 60;
    11A5 : 64;
    11A6 : 69;
    11A7 : 74;
    11A8 : 91;
    11A9 : a6;
    11AA : 9c;
    11AB : 90;
    11AC : 78;
    11AD : 62;
    11AE : 5f;
    11AF : 5c;
    11B0 : 83;
    11B1 : 85;
    11B2 : 87;
    11B3 : 89;
    11B4 : 8b;
    11B5 : 90;
    11B6 : 96;
    11B7 : 97;
    11B8 : 98;
    11B9 : 9a;
    11BA : 9d;
    11BB : 9f;
    11BC : a0;
    11BD : 9f;
    11BE : 9e;
    11BF : 93;
    11C0 : 7f;
    11C1 : 6d;
    11C2 : 60;
    11C3 : 59;
    11C4 : 5d;
    11C5 : 63;
    11C6 : 6b;
    11C7 : 7b;
    11C8 : 9f;
    11C9 : bb;
    11CA : b2;
    11CB : a6;
    11CC : 84;
    11CD : 63;
    11CE : 5f;
    11CF : 5c;
    11D0 : 87;
    11D1 : 89;
    11D2 : 8c;
    11D3 : 8f;
    11D4 : 92;
    11D5 : 96;
    11D6 : 9a;
    11D7 : 9b;
    11D8 : 9a;
    11D9 : 9f;
    11DA : a7;
    11DB : a9;
    11DC : a8;
    11DD : a7;
    11DE : a4;
    11DF : 99;
    11E0 : 87;
    11E1 : 75;
    11E2 : 63;
    11E3 : 5a;
    11E4 : 5e;
    11E5 : 63;
    11E6 : 6c;
    11E7 : 7c;
    11E8 : a3;
    11E9 : c2;
    11EA : be;
    11EB : b6;
    11EC : 8e;
    11ED : 68;
    11EE : 62;
    11EF : 5b;
    11F0 : 8b;
    11F1 : 8e;
    11F2 : 91;
    11F3 : 95;
    11F4 : 99;
    11F5 : 9c;
    11F6 : 9e;
    11F7 : 9e;
    11F8 : 9e;
    11F9 : a7;
    11FA : b4;
    11FB : b7;
    11FC : b4;
    11FD : af;
    11FE : ab;
    11FF : a0;
    1200 : 8f;
    1201 : 7c;
    1202 : 67;
    1203 : 5b;
    1204 : 5f;
    1205 : 64;
    1206 : 6c;
    1207 : 7d;
    1208 : a5;
    1209 : c6;
    120A : c8;
    120B : c4;
    120C : 98;
    120D : 6e;
    120E : 64;
    120F : 5a;
    1210 : 8d;
    1211 : 91;
    1212 : 94;
    1213 : 9a;
    1214 : a0;
    1215 : a0;
    1216 : a0;
    1217 : a0;
    1218 : a0;
    1219 : ac;
    121A : bc;
    121B : be;
    121C : b9;
    121D : b3;
    121E : ac;
    121F : 9f;
    1220 : 8c;
    1221 : 79;
    1222 : 66;
    1223 : 5c;
    1224 : 60;
    1225 : 65;
    1226 : 6c;
    1227 : 7b;
    1228 : a2;
    1229 : c3;
    122A : cc;
    122B : cf;
    122C : a3;
    122D : 7a;
    122E : 69;
    122F : 58;
    1230 : 8f;
    1231 : 93;
    1232 : 97;
    1233 : 9f;
    1234 : a6;
    1235 : a5;
    1236 : a1;
    1237 : a1;
    1238 : a2;
    1239 : af;
    123A : c1;
    123B : c3;
    123C : bc;
    123D : b4;
    123E : ac;
    123F : 9c;
    1240 : 87;
    1241 : 74;
    1242 : 64;
    1243 : 5c;
    1244 : 61;
    1245 : 66;
    1246 : 6c;
    1247 : 79;
    1248 : 9d;
    1249 : be;
    124A : ce;
    124B : d8;
    124C : af;
    124D : 87;
    124E : 6f;
    124F : 56;
    1250 : 90;
    1251 : 95;
    1252 : 9a;
    1253 : a3;
    1254 : ac;
    1255 : a9;
    1256 : a3;
    1257 : a1;
    1258 : a0;
    1259 : aa;
    125A : b9;
    125B : ba;
    125C : b4;
    125D : ae;
    125E : a7;
    125F : 9a;
    1260 : 84;
    1261 : 72;
    1262 : 63;
    1263 : 5c;
    1264 : 60;
    1265 : 65;
    1266 : 6b;
    1267 : 77;
    1268 : 97;
    1269 : b5;
    126A : c9;
    126B : d6;
    126C : b2;
    126D : 8f;
    126E : 73;
    126F : 57;
    1270 : 91;
    1271 : 97;
    1272 : 9e;
    1273 : a8;
    1274 : b3;
    1275 : ad;
    1276 : a5;
    1277 : 9f;
    1278 : 9b;
    1279 : a1;
    127A : ab;
    127B : ac;
    127C : a8;
    127D : a4;
    127E : a1;
    127F : 96;
    1280 : 84;
    1281 : 72;
    1282 : 62;
    1283 : 5a;
    1284 : 5e;
    1285 : 63;
    1286 : 69;
    1287 : 75;
    1288 : 91;
    1289 : ab;
    128A : c1;
    128B : d0;
    128C : b3;
    128D : 95;
    128E : 77;
    128F : 59;
    1290 : 90;
    1291 : 96;
    1292 : 9c;
    1293 : a5;
    1294 : ae;
    1295 : a9;
    1296 : a2;
    1297 : 9d;
    1298 : 98;
    1299 : 9b;
    129A : a2;
    129B : a3;
    129C : a1;
    129D : a0;
    129E : a0;
    129F : 97;
    12A0 : 87;
    12A1 : 76;
    12A2 : 64;
    12A3 : 5a;
    12A4 : 5e;
    12A5 : 62;
    12A6 : 67;
    12A7 : 71;
    12A8 : 86;
    12A9 : 9b;
    12AA : ae;
    12AB : bb;
    12AC : a7;
    12AD : 92;
    12AE : 78;
    12AF : 5e;
    12B0 : 8e;
    12B1 : 93;
    12B2 : 98;
    12B3 : 9e;
    12B4 : a4;
    12B5 : a1;
    12B6 : 9d;
    12B7 : 99;
    12B8 : 96;
    12B9 : 97;
    12BA : 9b;
    12BB : 9c;
    12BC : 9d;
    12BD : 9f;
    12BE : a1;
    12BF : 9b;
    12C0 : 8e;
    12C1 : 7d;
    12C2 : 67;
    12C3 : 5b;
    12C4 : 5e;
    12C5 : 61;
    12C6 : 64;
    12C7 : 6b;
    12C8 : 79;
    12C9 : 87;
    12CA : 94;
    12CB : 9f;
    12CC : 94;
    12CD : 89;
    12CE : 77;
    12CF : 64;
    12D0 : 8c;
    12D1 : 90;
    12D2 : 94;
    12D3 : 98;
    12D4 : 9c;
    12D5 : 9c;
    12D6 : 9c;
    12D7 : 9b;
    12D8 : 99;
    12D9 : 99;
    12DA : 9a;
    12DB : 9b;
    12DC : 9d;
    12DD : 9f;
    12DE : a1;
    12DF : 9c;
    12E0 : 8f;
    12E1 : 7e;
    12E2 : 67;
    12E3 : 5a;
    12E4 : 5d;
    12E5 : 61;
    12E6 : 63;
    12E7 : 67;
    12E8 : 70;
    12E9 : 79;
    12EA : 82;
    12EB : 89;
    12EC : 86;
    12ED : 82;
    12EE : 75;
    12EF : 68;
    12F0 : 89;
    12F1 : 8d;
    12F2 : 91;
    12F3 : 94;
    12F4 : 95;
    12F5 : 99;
    12F6 : 9e;
    12F7 : a0;
    12F8 : a0;
    12F9 : 9f;
    12FA : 9d;
    12FB : 9e;
    12FC : a0;
    12FD : a1;
    12FE : a1;
    12FF : 9b;
    1300 : 8e;
    1301 : 7c;
    1302 : 65;
    1303 : 58;
    1304 : 5d;
    1305 : 61;
    1306 : 62;
    1307 : 65;
    1308 : 6a;
    1309 : 6f;
    130A : 74;
    130B : 78;
    130C : 7a;
    130D : 7b;
    130E : 73;
    130F : 6a;
    1310 : 87;
    1311 : 8b;
    1312 : 90;
    1313 : 91;
    1314 : 92;
    1315 : 98;
    1316 : 9f;
    1317 : a4;
    1318 : a7;
    1319 : a5;
    131A : a0;
    131B : 9f;
    131C : a0;
    131D : a0;
    131E : a1;
    131F : 9a;
    1320 : 8c;
    1321 : 79;
    1322 : 62;
    1323 : 55;
    1324 : 5b;
    1325 : 60;
    1326 : 61;
    1327 : 62;
    1328 : 65;
    1329 : 68;
    132A : 6a;
    132B : 6d;
    132C : 72;
    132D : 76;
    132E : 71;
    132F : 6c;
    1330 : 87;
    1331 : 8b;
    1332 : 8f;
    1333 : 91;
    1334 : 92;
    1335 : 98;
    1336 : a0;
    1337 : a7;
    1338 : ad;
    1339 : aa;
    133A : a2;
    133B : 9f;
    133C : 9e;
    133D : 9f;
    133E : a0;
    133F : 99;
    1340 : 89;
    1341 : 75;
    1342 : 5e;
    1343 : 52;
    1344 : 59;
    1345 : 5d;
    1346 : 5f;
    1347 : 60;
    1348 : 62;
    1349 : 63;
    134A : 65;
    134B : 67;
    134C : 6d;
    134D : 72;
    134E : 70;
    134F : 6e;
    1350 : 86;
    1351 : 8a;
    1352 : 8e;
    1353 : 90;
    1354 : 92;
    1355 : 99;
    1356 : a0;
    1357 : a8;
    1358 : af;
    1359 : ab;
    135A : a3;
    135B : 9f;
    135C : 9e;
    135D : 9f;
    135E : a1;
    135F : 99;
    1360 : 87;
    1361 : 72;
    1362 : 5c;
    1363 : 50;
    1364 : 56;
    1365 : 5b;
    1366 : 5d;
    1367 : 5f;
    1368 : 60;
    1369 : 62;
    136A : 62;
    136B : 64;
    136C : 69;
    136D : 6e;
    136E : 6e;
    136F : 6e;
    1370 : 86;
    1371 : 89;
    1372 : 8d;
    1373 : 90;
    1374 : 92;
    1375 : 99;
    1376 : a0;
    1377 : a6;
    1378 : ab;
    1379 : a7;
    137A : a1;
    137B : 9e;
    137C : 9f;
    137D : a0;
    137E : a2;
    137F : 99;
    1380 : 85;
    1381 : 71;
    1382 : 5a;
    1383 : 4f;
    1384 : 54;
    1385 : 59;
    1386 : 5c;
    1387 : 5f;
    1388 : 62;
    1389 : 64;
    138A : 63;
    138B : 63;
    138C : 66;
    138D : 6a;
    138E : 6c;
    138F : 6e;
    1390 : 86;
    1391 : 88;
    1392 : 8b;
    1393 : 8f;
    1394 : 93;
    1395 : 99;
    1396 : a0;
    1397 : a4;
    1398 : a7;
    1399 : a5;
    139A : a0;
    139B : 9e;
    139C : a0;
    139D : a1;
    139E : a3;
    139F : 98;
    13A0 : 82;
    13A1 : 6d;
    13A2 : 57;
    13A3 : 4c;
    13A4 : 53;
    13A5 : 58;
    13A6 : 5a;
    13A7 : 5d;
    13A8 : 61;
    13A9 : 64;
    13AA : 63;
    13AB : 63;
    13AC : 65;
    13AD : 67;
    13AE : 6b;
    13AF : 6e;
    13B0 : 86;
    13B1 : 87;
    13B2 : 89;
    13B3 : 8e;
    13B4 : 94;
    13B5 : 9a;
    13B6 : a0;
    13B7 : a3;
    13B8 : a5;
    13B9 : a3;
    13BA : 9f;
    13BB : 9f;
    13BC : a1;
    13BD : a2;
    13BE : a3;
    13BF : 96;
    13C0 : 7d;
    13C1 : 66;
    13C2 : 52;
    13C3 : 49;
    13C4 : 52;
    13C5 : 58;
    13C6 : 58;
    13C7 : 5a;
    13C8 : 5e;
    13C9 : 61;
    13CA : 64;
    13CB : 66;
    13CC : 67;
    13CD : 69;
    13CE : 6c;
    13CF : 70;
    13D0 : 85;
    13D1 : 86;
    13D2 : 87;
    13D3 : 8d;
    13D4 : 94;
    13D5 : 9a;
    13D6 : 9f;
    13D7 : a1;
    13D8 : a3;
    13D9 : a2;
    13DA : a0;
    13DB : a0;
    13DC : a2;
    13DD : a3;
    13DE : a3;
    13DF : 95;
    13E0 : 79;
    13E1 : 61;
    13E2 : 4f;
    13E3 : 48;
    13E4 : 51;
    13E5 : 57;
    13E6 : 57;
    13E7 : 58;
    13E8 : 5c;
    13E9 : 60;
    13EA : 64;
    13EB : 67;
    13EC : 68;
    13ED : 69;
    13EE : 6b;
    13EF : 6e;
    13F0 : 84;
    13F1 : 85;
    13F2 : 86;
    13F3 : 8d;
    13F4 : 94;
    13F5 : 99;
    13F6 : 9e;
    13F7 : a1;
    13F8 : a3;
    13F9 : a2;
    13FA : a0;
    13FB : a0;
    13FC : a1;
    13FD : a2;
    13FE : a2;
    13FF : 93;
    1400 : 77;
    1401 : 61;
    1402 : 50;
    1403 : 48;
    1404 : 4e;
    1405 : 53;
    1406 : 57;
    1407 : 5b;
    1408 : 5e;
    1409 : 61;
    140A : 62;
    140B : 63;
    140C : 66;
    140D : 68;
    140E : 66;
    140F : 64;
    1410 : 84;
    1411 : 84;
    1412 : 85;
    1413 : 8c;
    1414 : 94;
    1415 : 99;
    1416 : 9d;
    1417 : a0;
    1418 : a3;
    1419 : a2;
    141A : a1;
    141B : a1;
    141C : a1;
    141D : a1;
    141E : a1;
    141F : 92;
    1420 : 75;
    1421 : 5f;
    1422 : 4f;
    1423 : 47;
    1424 : 4a;
    1425 : 4f;
    1426 : 55;
    1427 : 5b;
    1428 : 5d;
    1429 : 5f;
    142A : 5e;
    142B : 5d;
    142C : 60;
    142D : 63;
    142E : 5f;
    142F : 5c;
    1430 : 84;
    1431 : 85;
    1432 : 86;
    1433 : 8d;
    1434 : 94;
    1435 : 99;
    1436 : 9c;
    1437 : 9f;
    1438 : a2;
    1439 : a2;
    143A : a0;
    143B : a0;
    143C : a0;
    143D : a1;
    143E : a1;
    143F : 90;
    1440 : 70;
    1441 : 57;
    1442 : 47;
    1443 : 3f;
    1444 : 45;
    1445 : 4a;
    1446 : 4d;
    1447 : 50;
    1448 : 53;
    1449 : 54;
    144A : 53;
    144B : 52;
    144C : 51;
    144D : 51;
    144E : 54;
    144F : 57;
    1450 : 85;
    1451 : 87;
    1452 : 88;
    1453 : 8e;
    1454 : 95;
    1455 : 99;
    1456 : 9c;
    1457 : 9f;
    1458 : a1;
    1459 : a1;
    145A : a0;
    145B : 9f;
    145C : a0;
    145D : a0;
    145E : a1;
    145F : 8f;
    1460 : 6a;
    1461 : 4f;
    1462 : 3e;
    1463 : 37;
    1464 : 3e;
    1465 : 44;
    1466 : 45;
    1467 : 46;
    1468 : 49;
    1469 : 4b;
    146A : 4a;
    146B : 49;
    146C : 46;
    146D : 44;
    146E : 4d;
    146F : 57;
    1470 : 87;
    1471 : 8a;
    1472 : 8c;
    1473 : 92;
    1474 : 98;
    1475 : 9b;
    1476 : 9d;
    1477 : 9e;
    1478 : a0;
    1479 : a0;
    147A : 9f;
    147B : 9f;
    147C : a0;
    147D : a1;
    147E : a1;
    147F : 8b;
    1480 : 61;
    1481 : 43;
    1482 : 33;
    1483 : 2c;
    1484 : 31;
    1485 : 35;
    1486 : 38;
    1487 : 3c;
    1488 : 42;
    1489 : 47;
    148A : 47;
    148B : 47;
    148C : 49;
    148D : 4b;
    148E : 5c;
    148F : 6d;
    1490 : 8a;
    1491 : 8d;
    1492 : 90;
    1493 : 96;
    1494 : 9b;
    1495 : 9d;
    1496 : 9d;
    1497 : 9e;
    1498 : 9f;
    1499 : 9f;
    149A : 9e;
    149B : 9f;
    149C : a1;
    149D : a1;
    149E : a0;
    149F : 88;
    14A0 : 59;
    14A1 : 39;
    14A2 : 2b;
    14A3 : 24;
    14A4 : 27;
    14A5 : 2b;
    14A6 : 30;
    14A7 : 36;
    14A8 : 40;
    14A9 : 47;
    14AA : 48;
    14AB : 49;
    14AC : 4d;
    14AD : 53;
    14AE : 69;
    14AF : 7f;
    14B0 : 8c;
    14B1 : 90;
    14B2 : 93;
    14B3 : 98;
    14B4 : 9c;
    14B5 : 9e;
    14B6 : 9f;
    14B7 : 9f;
    14B8 : 9f;
    14B9 : 9f;
    14BA : 9f;
    14BB : a0;
    14BC : a2;
    14BD : a1;
    14BE : 9c;
    14BF : 84;
    14C0 : 58;
    14C1 : 3c;
    14C2 : 31;
    14C3 : 2d;
    14C4 : 36;
    14C5 : 3e;
    14C6 : 48;
    14C7 : 51;
    14C8 : 5a;
    14C9 : 61;
    14CA : 5f;
    14CB : 5d;
    14CC : 5a;
    14CD : 58;
    14CE : 67;
    14CF : 76;
    14D0 : 8f;
    14D1 : 92;
    14D2 : 95;
    14D3 : 99;
    14D4 : 9e;
    14D5 : 9f;
    14D6 : a0;
    14D7 : a0;
    14D8 : 9f;
    14D9 : 9f;
    14DA : 9f;
    14DB : a1;
    14DC : a4;
    14DD : a0;
    14DE : 98;
    14DF : 7f;
    14E0 : 58;
    14E1 : 3e;
    14E2 : 37;
    14E3 : 37;
    14E4 : 45;
    14E5 : 52;
    14E6 : 60;
    14E7 : 6c;
    14E8 : 74;
    14E9 : 7a;
    14EA : 76;
    14EB : 71;
    14EC : 67;
    14ED : 5e;
    14EE : 65;
    14EF : 6c;
    14F0 : 8f;
    14F1 : 91;
    14F2 : 94;
    14F3 : 99;
    14F4 : 9d;
    14F5 : 9f;
    14F6 : a1;
    14F7 : a0;
    14F8 : 9f;
    14F9 : 9f;
    14FA : a1;
    14FB : a2;
    14FC : a4;
    14FD : 9e;
    14FE : 91;
    14FF : 77;
    1500 : 50;
    1501 : 3d;
    1502 : 43;
    1503 : 4c;
    1504 : 5c;
    1505 : 6a;
    1506 : 74;
    1507 : 7c;
    1508 : 7e;
    1509 : 80;
    150A : 7e;
    150B : 7c;
    150C : 75;
    150D : 6e;
    150E : 64;
    150F : 5b;
    1510 : 8f;
    1511 : 91;
    1512 : 93;
    1513 : 98;
    1514 : 9d;
    1515 : 9f;
    1516 : a1;
    1517 : a0;
    1518 : 9f;
    1519 : a0;
    151A : a2;
    151B : a3;
    151C : a5;
    151D : 9c;
    151E : 8b;
    151F : 6f;
    1520 : 48;
    1521 : 3c;
    1522 : 4f;
    1523 : 61;
    1524 : 73;
    1525 : 82;
    1526 : 88;
    1527 : 8c;
    1528 : 89;
    1529 : 87;
    152A : 87;
    152B : 87;
    152C : 83;
    152D : 7e;
    152E : 64;
    152F : 4a;
    1530 : xx;
    1531 : xx;
    1532 : xx;
    1533 : xx;
    1534 : xx;
    1535 : xx;
    1536 : xx;
    1537 : xx;
    1538 : xx;
    1539 : xx;
    153A : xx;
    153B : xx;
    153C : xx;
    153D : xx;
    153E : xx;
    153F : xx;
    1540 : xx;
    1541 : xx;
    1542 : xx;
    1543 : xx;
    1544 : xx;
    1545 : xx;
    1546 : xx;
    1547 : xx;
    1548 : xx;
    1549 : xx;
    154A : xx;
    154B : xx;
    154C : xx;
    154D : xx;
    154E : xx;
    154F : xx;
    1550 : xx;
    1551 : xx;
    1552 : xx;
    1553 : xx;
    1554 : xx;
    1555 : xx;
    1556 : xx;
    1557 : xx;
    1558 : xx;
    1559 : xx;
    155A : xx;
    155B : xx;
    155C : xx;
    155D : xx;
    155E : xx;
    155F : xx;
    1560 : xx;
    1561 : xx;
    1562 : xx;
    1563 : xx;
    1564 : xx;
    1565 : xx;
    1566 : xx;
    1567 : xx;
    1568 : xx;
    1569 : xx;
    156A : xx;
    156B : xx;
    156C : xx;
    156D : xx;
    156E : xx;
    156F : xx;
    1570 : xx;
    1571 : xx;
    1572 : xx;
    1573 : xx;
    1574 : xx;
    1575 : xx;
    1576 : xx;
    1577 : xx;
    1578 : xx;
    1579 : xx;
    157A : xx;
    157B : xx;
    157C : xx;
    157D : xx;
    157E : xx;
    157F : xx;
    1580 : xx;
    1581 : xx;
    1582 : xx;
    1583 : xx;
    1584 : xx;
    1585 : xx;
    1586 : xx;
    1587 : xx;
    1588 : xx;
    1589 : xx;
    158A : xx;
    158B : xx;
    158C : xx;
    158D : xx;
    158E : xx;
    158F : xx;
    1590 : xx;
    1591 : xx;
    1592 : xx;
    1593 : xx;
    1594 : xx;
    1595 : xx;
    1596 : xx;
    1597 : xx;
    1598 : xx;
    1599 : xx;
    159A : xx;
    159B : xx;
    159C : xx;
    159D : xx;
    159E : xx;
    159F : xx;
    15A0 : xx;
    15A1 : xx;
    15A2 : xx;
    15A3 : xx;
    15A4 : xx;
    15A5 : xx;
    15A6 : xx;
    15A7 : xx;
    15A8 : xx;
    15A9 : xx;
    15AA : xx;
    15AB : xx;
    15AC : xx;
    15AD : xx;
    15AE : xx;
    15AF : xx;
    15B0 : xx;
    15B1 : xx;
    15B2 : xx;
    15B3 : xx;
    15B4 : xx;
    15B5 : xx;
    15B6 : xx;
    15B7 : xx;
    15B8 : xx;
    15B9 : xx;
    15BA : xx;
    15BB : xx;
    15BC : xx;
    15BD : xx;
    15BE : xx;
    15BF : xx;
    15C0 : xx;
    15C1 : xx;
    15C2 : xx;
    15C3 : xx;
    15C4 : xx;
    15C5 : xx;
    15C6 : xx;
    15C7 : xx;
    15C8 : xx;
    15C9 : xx;
    15CA : xx;
    15CB : xx;
    15CC : xx;
    15CD : xx;
    15CE : xx;
    15CF : xx;
    15D0 : xx;
    15D1 : xx;
    15D2 : xx;
    15D3 : xx;
    15D4 : xx;
    15D5 : xx;
    15D6 : xx;
    15D7 : xx;
    15D8 : xx;
    15D9 : xx;
    15DA : xx;
    15DB : xx;
    15DC : xx;
    15DD : xx;
    15DE : xx;
    15DF : xx;
    15E0 : xx;
    15E1 : xx;
    15E2 : xx;
    15E3 : xx;
    15E4 : xx;
    15E5 : xx;
    15E6 : xx;
    15E7 : xx;
    15E8 : xx;
    15E9 : xx;
    15EA : xx;
    15EB : xx;
    15EC : xx;
    15ED : xx;
    15EE : xx;
    15EF : xx;
    15F0 : xx;
    15F1 : xx;
    15F2 : xx;
[...]
    7ACB : xx;
    7ACC : xx;
    7ACD : xx;
    7ACE : xx;
    7ACF : xx;
    7AD0 : xx;
    7AD1 : xx;
    7AD2 : xx;
    7AD3 : xx;
    7AD4 : xx;
    7AD5 : xx;
    7AD6 : xx;
    7AD7 : xx;
    7AD8 : xx;
    7AD9 : xx;
    7ADA : xx;
    7ADB : xx;
    7ADC : xx;
    7ADD : xx;
    7ADE : xx;
    7ADF : xx;
    7AE0 : xx;
    7AE1 : xx;
    7AE2 : xx;
    7AE3 : xx;
    7AE4 : xx;
    7AE5 : xx;
    7AE6 : xx;
    7AE7 : xx;
    7AE8 : xx;
    7AE9 : xx;
    7AEA : xx;
    7AEB : xx;
    7AEC : xx;
    7AED : xx;
    7AEE : xx;
    7AEF : xx;
    7AF0 : xx;
    7AF1 : xx;
    7AF2 : xx;
    7AF3 : xx;
    7AF4 : xx;
    7AF5 : xx;
    7AF6 : xx;
    7AF7 : xx;
    7AF8 : xx;
    7AF9 : xx;
    7AFA : xx;
    7AFB : xx;
    7AFC : xx;
    7AFD : xx;
    7AFE : xx;
    7AFF : xx;
    7B00 : xx;
    7B01 : xx;
    7B02 : xx;
    7B03 : xx;
    7B04 : xx;
    7B05 : xx;
    7B06 : xx;
    7B07 : xx;
    7B08 : xx;
    7B09 : xx;
    7B0A : xx;
    7B0B : xx;
    7B0C : xx;
    7B0D : xx;
    7B0E : xx;
    7B0F : xx;
    7B10 : xx;
    7B11 : xx;
    7B12 : xx;
    7B13 : xx;
    7B14 : xx;
    7B15 : xx;
    7B16 : xx;
    7B17 : xx;
    7B18 : xx;
    7B19 : xx;
    7B1A : xx;
    7B1B : xx;
    7B1C : xx;
    7B1D : xx;
    7B1E : xx;
    7B1F : xx;
    7B20 : xx;
    7B21 : xx;
    7B22 : xx;
    7B23 : xx;
    7B24 : xx;
    7B25 : xx;
    7B26 : xx;
    7B27 : xx;
    7B28 : xx;
    7B29 : xx;
    7B2A : xx;
    7B2B : xx;
    7B2C : xx;
    7B2D : xx;
    7B2E : xx;
    7B2F : xx;
    7B30 : xx;
    7B31 : xx;
    7B32 : xx;
    7B33 : xx;
    7B34 : xx;
    7B35 : xx;
    7B36 : xx;
    7B37 : xx;
    7B38 : xx;
    7B39 : xx;
    7B3A : xx;
    7B3B : xx;
    7B3C : xx;
    7B3D : xx;
    7B3E : xx;
    7B3F : xx;
    7B40 : xx;
    7B41 : xx;
    7B42 : xx;
    7B43 : xx;
    7B44 : xx;
    7B45 : xx;
    7B46 : xx;
    7B47 : xx;
    7B48 : xx;
    7B49 : xx;
    7B4A : xx;
    7B4B : xx;
    7B4C : xx;
    7B4D : xx;
    7B4E : xx;
    7B4F : xx;
    7B50 : xx;
    7B51 : xx;
    7B52 : xx;
    7B53 : xx;
    7B54 : xx;
    7B55 : xx;
    7B56 : xx;
    7B57 : xx;
    7B58 : xx;
    7B59 : xx;
    7B5A : xx;
    7B5B : xx;
    7B5C : xx;
    7B5D : xx;
    7B5E : xx;
    7B5F : xx;
    7B60 : xx;
    7B61 : xx;
    7B62 : xx;
    7B63 : xx;
    7B64 : xx;
    7B65 : xx;
    7B66 : xx;
    7B67 : xx;
    7B68 : xx;
    7B69 : xx;
    7B6A : xx;
    7B6B : xx;
    7B6C : xx;
    7B6D : xx;
    7B6E : xx;
    7B6F : xx;
    7B70 : xx;
    7B71 : xx;
    7B72 : xx;
    7B73 : xx;
    7B74 : xx;
    7B75 : xx;
    7B76 : xx;
    7B77 : xx;
    7B78 : xx;
    7B79 : xx;
    7B7A : xx;
    7B7B : xx;
    7B7C : xx;
    7B7D : xx;
    7B7E : xx;
    7B7F : xx;
    7B80 : xx;
    7B81 : xx;
    7B82 : xx;
    7B83 : xx;
    7B84 : xx;
    7B85 : xx;
    7B86 : xx;
    7B87 : xx;
    7B88 : xx;
    7B89 : xx;
    7B8A : xx;
    7B8B : xx;
    7B8C : xx;
    7B8D : xx;
    7B8E : xx;
    7B8F : xx;
    7B90 : xx;
    7B91 : xx;
    7B92 : xx;
    7B93 : xx;
    7B94 : xx;
    7B95 : xx;
    7B96 : xx;
    7B97 : xx;
    7B98 : xx;
    7B99 : xx;
    7B9A : xx;
    7B9B : xx;
    7B9C : xx;
    7B9D : xx;
    7B9E : xx;
    7B9F : xx;
    7BA0 : xx;
    7BA1 : xx;
    7BA2 : xx;
    7BA3 : xx;
    7BA4 : xx;
    7BA5 : xx;
    7BA6 : xx;
    7BA7 : xx;
    7BA8 : xx;
    7BA9 : xx;
    7BAA : xx;
    7BAB : xx;
    7BAC : xx;
    7BAD : xx;
    7BAE : xx;
    7BAF : xx;
    7BB0 : xx;
    7BB1 : xx;
    7BB2 : xx;
    7BB3 : xx;
    7BB4 : xx;
    7BB5 : xx;
    7BB6 : xx;
    7BB7 : xx;
    7BB8 : xx;
    7BB9 : xx;
    7BBA : xx;
    7BBB : xx;
    7BBC : xx;
    7BBD : xx;
    7BBE : xx;
    7BBF : xx;
    7BC0 : xx;
    7BC1 : xx;
    7BC2 : xx;
    7BC3 : xx;
    7BC4 : xx;
    7BC5 : xx;
    7BC6 : xx;
    7BC7 : xx;
    7BC8 : xx;
    7BC9 : xx;
    7BCA : xx;
    7BCB : xx;
    7BCC : xx;
    7BCD : xx;
    7BCE : xx;
    7BCF : xx;
    7BD0 : xx;
    7BD1 : xx;
    7BD2 : xx;
    7BD3 : xx;
    7BD4 : xx;
    7BD5 : xx;
    7BD6 : xx;
    7BD7 : xx;
    7BD8 : xx;
    7BD9 : xx;
    7BDA : xx;
    7BDB : xx;
    7BDC : xx;
    7BDD : xx;
    7BDE : xx;
    7BDF : xx;
    7BE0 : xx;
    7BE1 : xx;
    7BE2 : xx;
    7BE3 : xx;
    7BE4 : xx;
    7BE5 : xx;
    7BE6 : xx;
    7BE7 : xx;
    7BE8 : xx;
    7BE9 : xx;
    7BEA : xx;
    7BEB : xx;
    7BEC : xx;
    7BED : xx;
    7BEE : xx;
    7BEF : xx;
    7BF0 : xx;
    7BF1 : xx;
    7BF2 : xx;
    7BF3 : xx;
    7BF4 : xx;
    7BF5 : xx;
    7BF6 : xx;
    7BF7 : xx;
    7BF8 : xx;
    7BF9 : xx;
    7BFA : xx;
    7BFB : xx;
    7BFC : xx;
    7BFD : xx;
    7BFE : xx;
    7BFF : xx;
    7C00 : xx;
    7C01 : xx;
    7C02 : xx;
    7C03 : xx;
    7C04 : xx;
    7C05 : xx;
    7C06 : xx;
    7C07 : xx;
    7C08 : xx;
    7C09 : xx;
    7C0A : xx;
    7C0B : xx;
    7C0C : xx;
    7C0D : xx;
    7C0E : xx;
    7C0F : xx;
    7C10 : xx;
    7C11 : xx;
    7C12 : xx;
    7C13 : xx;
    7C14 : xx;
    7C15 : xx;
    7C16 : xx;
    7C17 : xx;
    7C18 : xx;
    7C19 : xx;
    7C1A : xx;
    7C1B : xx;
    7C1C : xx;
    7C1D : xx;
    7C1E : xx;
    7C1F : xx;
    7C20 : xx;
    7C21 : xx;
    7C22 : xx;
    7C23 : xx;
    7C24 : xx;
    7C25 : xx;
    7C26 : xx;
    7C27 : xx;
    7C28 : xx;
    7C29 : xx;
    7C2A : xx;
    7C2B : xx;
    7C2C : xx;
    7C2D : xx;
    7C2E : xx;
    7C2F : xx;
    7C30 : xx;
    7C31 : xx;
    7C32 : xx;
    7C33 : xx;
    7C34 : xx;
    7C35 : xx;
    7C36 : xx;
    7C37 : xx;
    7C38 : xx;
    7C39 : xx;
    7C3A : xx;
    7C3B : xx;
    7C3C : xx;
    7C3D : xx;
    7C3E : xx;
    7C3F : xx;
    7C40 : xx;
    7C41 : xx;
    7C42 : xx;
    7C43 : xx;
    7C44 : xx;
    7C45 : xx;
    7C46 : xx;
    7C47 : xx;
    7C48 : xx;
    7C49 : xx;
    7C4A : xx;
    7C4B : xx;
    7C4C : xx;
    7C4D : xx;
    7C4E : xx;
    7C4F : xx;
    7C50 : xx;
    7C51 : xx;
    7C52 : xx;
    7C53 : xx;
    7C54 : xx;
    7C55 : xx;
    7C56 : xx;
    7C57 : xx;
    7C58 : xx;
    7C59 : xx;
    7C5A : xx;
    7C5B : xx;
    7C5C : xx;
    7C5D : xx;
    7C5E : xx;
    7C5F : xx;
    7C60 : xx;
    7C61 : xx;
    7C62 : xx;
    7C63 : xx;
    7C64 : xx;
    7C65 : xx;
    7C66 : xx;
    7C67 : xx;
    7C68 : xx;
    7C69 : xx;
    7C6A : xx;
    7C6B : xx;
    7C6C : xx;
    7C6D : xx;
    7C6E : xx;
    7C6F : xx;
    7C70 : xx;
    7C71 : xx;
    7C72 : xx;
    7C73 : xx;
    7C74 : xx;
    7C75 : xx;
    7C76 : xx;
    7C77 : xx;
    7C78 : xx;
    7C79 : xx;
    7C7A : xx;
    7C7B : xx;
    7C7C : xx;
    7C7D : xx;
    7C7E : xx;
    7C7F : xx;
    7C80 : xx;
    7C81 : xx;
    7C82 : xx;
    7C83 : xx;
    7C84 : xx;
    7C85 : xx;
    7C86 : xx;
    7C87 : xx;
    7C88 : xx;
    7C89 : xx;
    7C8A : xx;
    7C8B : xx;
    7C8C : xx;
    7C8D : xx;
    7C8E : xx;
    7C8F : xx;
    7C90 : xx;
    7C91 : xx;
    7C92 : xx;
    7C93 : xx;
    7C94 : xx;
    7C95 : xx;
    7C96 : xx;
    7C97 : xx;
    7C98 : xx;
    7C99 : xx;
    7C9A : xx;
    7C9B : xx;
    7C9C : xx;
    7C9D : xx;
    7C9E : xx;
    7C9F : xx;
    7CA0 : xx;
    7CA1 : xx;
    7CA2 : xx;
    7CA3 : xx;
    7CA4 : xx;
    7CA5 : xx;
    7CA6 : xx;
    7CA7 : xx;
    7CA8 : xx;
    7CA9 : xx;
    7CAA : xx;
    7CAB : xx;
    7CAC : xx;
    7CAD : xx;
    7CAE : xx;
    7CAF : xx;
    7CB0 : xx;
    7CB1 : xx;
    7CB2 : xx;
    7CB3 : xx;
    7CB4 : xx;
    7CB5 : xx;
    7CB6 : xx;
    7CB7 : xx;
    7CB8 : xx;
    7CB9 : xx;
    7CBA : xx;
    7CBB : xx;
    7CBC : xx;
    7CBD : xx;
    7CBE : xx;
    7CBF : xx;
    7CC0 : xx;
    7CC1 : xx;
    7CC2 : xx;
    7CC3 : xx;
    7CC4 : xx;
    7CC5 : xx;
    7CC6 : xx;
    7CC7 : xx;
    7CC8 : xx;
    7CC9 : xx;
    7CCA : xx;
    7CCB : xx;
    7CCC : xx;
    7CCD : xx;
    7CCE : xx;
    7CCF : xx;
    7CD0 : xx;
    7CD1 : xx;
    7CD2 : xx;
    7CD3 : xx;
    7CD4 : xx;
    7CD5 : xx;
    7CD6 : xx;
    7CD7 : xx;
    7CD8 : xx;
    7CD9 : xx;
    7CDA : xx;
    7CDB : xx;
    7CDC : xx;
    7CDD : xx;
    7CDE : xx;
    7CDF : xx;
    7CE0 : xx;
    7CE1 : xx;
    7CE2 : xx;
    7CE3 : xx;
    7CE4 : xx;
    7CE5 : xx;
    7CE6 : xx;
    7CE7 : xx;
    7CE8 : xx;
    7CE9 : xx;
    7CEA : xx;
    7CEB : xx;
    7CEC : xx;
    7CED : xx;
    7CEE : xx;
    7CEF : xx;
    7CF0 : xx;
    7CF1 : xx;
    7CF2 : xx;
    7CF3 : xx;
    7CF4 : xx;
    7CF5 : xx;
    7CF6 : xx;
    7CF7 : xx;
    7CF8 : xx;
    7CF9 : xx;
    7CFA : xx;
    7CFB : xx;
    7CFC : xx;
    7CFD : xx;
    7CFE : xx;
    7CFF : xx;
    7D00 : xx;
    7D01 : xx;
    7D02 : xx;
    7D03 : xx;
    7D04 : xx;
    7D05 : xx;
    7D06 : xx;
    7D07 : xx;
    7D08 : xx;
    7D09 : xx;
    7D0A : xx;
    7D0B : xx;
    7D0C : xx;
    7D0D : xx;
    7D0E : xx;
    7D0F : xx;
    7D10 : xx;
    7D11 : xx;
    7D12 : xx;
    7D13 : xx;
    7D14 : xx;
    7D15 : xx;
    7D16 : xx;
    7D17 : xx;
    7D18 : xx;
    7D19 : xx;
    7D1A : xx;
    7D1B : xx;
    7D1C : xx;
    7D1D : xx;
    7D1E : xx;
    7D1F : xx;
    7D20 : xx;
    7D21 : xx;
    7D22 : xx;
    7D23 : xx;
    7D24 : xx;
    7D25 : xx;
    7D26 : xx;
    7D27 : xx;
    7D28 : xx;
    7D29 : xx;
    7D2A : xx;
    7D2B : xx;
    7D2C : xx;
    7D2D : xx;
    7D2E : xx;
    7D2F : xx;
    7D30 : xx;
    7D31 : xx;
    7D32 : xx;
    7D33 : xx;
    7D34 : xx;
    7D35 : xx;
    7D36 : xx;
    7D37 : xx;
    7D38 : xx;
    7D39 : xx;
    7D3A : xx;
    7D3B : xx;
    7D3C : xx;
    7D3D : xx;
    7D3E : xx;
    7D3F : xx;
    7D40 : xx;
    7D41 : xx;
    7D42 : xx;
    7D43 : xx;
    7D44 : xx;
    7D45 : xx;
    7D46 : xx;
    7D47 : xx;
    7D48 : xx;
    7D49 : xx;
    7D4A : xx;
    7D4B : xx;
    7D4C : xx;
    7D4D : xx;
    7D4E : xx;
    7D4F : xx;
    7D50 : xx;
    7D51 : xx;
    7D52 : xx;
    7D53 : xx;
    7D54 : xx;
    7D55 : xx;
    7D56 : xx;
    7D57 : xx;
    7D58 : xx;
    7D59 : xx;
    7D5A : xx;
    7D5B : xx;
    7D5C : xx;
    7D5D : xx;
    7D5E : xx;
    7D5F : xx;
    7D60 : xx;
    7D61 : xx;
    7D62 : xx;
    7D63 : xx;
    7D64 : xx;
    7D65 : xx;
    7D66 : xx;
    7D67 : xx;
    7D68 : xx;
    7D69 : xx;
    7D6A : xx;
    7D6B : xx;
    7D6C : xx;
    7D6D : xx;
    7D6E : xx;
    7D6F : xx;
    7D70 : xx;
    7D71 : xx;
    7D72 : xx;
    7D73 : xx;
    7D74 : xx;
    7D75 : xx;
    7D76 : xx;
    7D77 : xx;
    7D78 : xx;
    7D79 : xx;
    7D7A : xx;
    7D7B : xx;
    7D7C : xx;
    7D7D : xx;
    7D7E : xx;
    7D7F : xx;
    7D80 : xx;
    7D81 : xx;
    7D82 : xx;
    7D83 : xx;
    7D84 : xx;
    7D85 : xx;
    7D86 : xx;
    7D87 : xx;
    7D88 : xx;
    7D89 : xx;
    7D8A : xx;
    7D8B : xx;
    7D8C : xx;
    7D8D : xx;
    7D8E : xx;
    7D8F : xx;
    7D90 : xx;
    7D91 : xx;
    7D92 : xx;
    7D93 : xx;
    7D94 : xx;
    7D95 : xx;
    7D96 : xx;
    7D97 : xx;
    7D98 : xx;
    7D99 : xx;
    7D9A : xx;
    7D9B : xx;
    7D9C : xx;
    7D9D : xx;
    7D9E : xx;
    7D9F : xx;
    7DA0 : xx;
    7DA1 : xx;
    7DA2 : xx;
    7DA3 : xx;
    7DA4 : xx;
    7DA5 : xx;
    7DA6 : xx;
    7DA7 : xx;
    7DA8 : xx;
    7DA9 : xx;
    7DAA : xx;
    7DAB : xx;
    7DAC : xx;
    7DAD : xx;
    7DAE : xx;
    7DAF : xx;
    7DB0 : xx;
    7DB1 : xx;
    7DB2 : xx;
    7DB3 : xx;
    7DB4 : xx;
    7DB5 : xx;
    7DB6 : xx;
    7DB7 : xx;
    7DB8 : xx;
    7DB9 : xx;
    7DBA : xx;
    7DBB : xx;
    7DBC : xx;
    7DBD : xx;
    7DBE : xx;
    7DBF : xx;
    7DC0 : xx;
    7DC1 : xx;
    7DC2 : xx;
    7DC3 : xx;
    7DC4 : xx;
    7DC5 : xx;
    7DC6 : xx;
    7DC7 : xx;
    7DC8 : xx;
    7DC9 : xx;
    7DCA : xx;
    7DCB : xx;
    7DCC : xx;
    7DCD : xx;
    7DCE : xx;
    7DCF : xx;
    7DD0 : xx;
    7DD1 : xx;
    7DD2 : xx;
    7DD3 : xx;
    7DD4 : xx;
    7DD5 : xx;
    7DD6 : xx;
    7DD7 : xx;
    7DD8 : xx;
    7DD9 : xx;
    7DDA : xx;
    7DDB : xx;
    7DDC : xx;
    7DDD : xx;
    7DDE : xx;
    7DDF : xx;
    7DE0 : xx;
    7DE1 : xx;
    7DE2 : xx;
    7DE3 : xx;
    7DE4 : xx;
    7DE5 : xx;
    7DE6 : xx;
    7DE7 : xx;
    7DE8 : xx;
    7DE9 : xx;
    7DEA : xx;
    7DEB : xx;
    7DEC : xx;
    7DED : xx;
    7DEE : xx;
    7DEF : xx;
    7DF0 : xx;
    7DF1 : xx;
    7DF2 : xx;
    7DF3 : xx;
    7DF4 : xx;
    7DF5 : xx;
    7DF6 : xx;
    7DF7 : xx;
    7DF8 : xx;
    7DF9 : xx;
    7DFA : xx;
    7DFB : xx;
    7DFC : xx;
    7DFD : xx;
    7DFE : xx;
    7DFF : xx;
    7E00 : xx;
    7E01 : xx;
    7E02 : xx;
    7E03 : xx;
    7E04 : xx;
    7E05 : xx;
    7E06 : xx;
    7E07 : xx;
    7E08 : xx;
    7E09 : xx;
    7E0A : xx;
    7E0B : xx;
    7E0C : xx;
    7E0D : xx;
    7E0E : xx;
    7E0F : xx;
    7E10 : xx;
    7E11 : xx;
    7E12 : xx;
    7E13 : xx;
    7E14 : xx;
    7E15 : xx;
    7E16 : xx;
    7E17 : xx;
    7E18 : xx;
    7E19 : xx;
    7E1A : xx;
    7E1B : xx;
    7E1C : xx;
    7E1D : xx;
    7E1E : xx;
    7E1F : xx;
    7E20 : xx;
    7E21 : xx;
    7E22 : xx;
    7E23 : xx;
    7E24 : xx;
    7E25 : xx;
    7E26 : xx;
    7E27 : xx;
    7E28 : xx;
    7E29 : xx;
    7E2A : xx;
    7E2B : xx;
    7E2C : xx;
    7E2D : xx;
    7E2E : xx;
    7E2F : xx;
    7E30 : xx;
    7E31 : xx;
    7E32 : xx;
    7E33 : xx;
    7E34 : xx;
    7E35 : xx;
    7E36 : xx;
    7E37 : xx;
    7E38 : xx;
    7E39 : xx;
    7E3A : xx;
    7E3B : xx;
    7E3C : xx;
    7E3D : xx;
    7E3E : xx;
    7E3F : xx;
    7E40 : xx;
    7E41 : xx;
    7E42 : xx;
    7E43 : xx;
    7E44 : xx;
    7E45 : xx;
    7E46 : xx;
    7E47 : xx;
    7E48 : xx;
    7E49 : xx;
    7E4A : xx;
    7E4B : xx;
    7E4C : xx;
    7E4D : xx;
    7E4E : xx;
    7E4F : xx;
    7E50 : xx;
    7E51 : xx;
    7E52 : xx;
    7E53 : xx;
    7E54 : xx;
    7E55 : xx;
    7E56 : xx;
    7E57 : xx;
    7E58 : xx;
    7E59 : xx;
    7E5A : xx;
    7E5B : xx;
    7E5C : xx;
    7E5D : xx;
    7E5E : xx;
    7E5F : xx;
    7E60 : xx;
    7E61 : xx;
    7E62 : xx;
    7E63 : xx;
    7E64 : xx;
    7E65 : xx;
    7E66 : xx;
    7E67 : xx;
    7E68 : xx;
    7E69 : xx;
    7E6A : xx;
    7E6B : xx;
    7E6C : xx;
    7E6D : xx;
    7E6E : xx;
    7E6F : xx;
    7E70 : xx;
    7E71 : xx;
    7E72 : xx;
    7E73 : xx;
    7E74 : xx;
    7E75 : xx;
    7E76 : xx;
    7E77 : xx;
    7E78 : xx;
    7E79 : xx;
    7E7A : xx;
    7E7B : xx;
    7E7C : xx;
    7E7D : xx;
    7E7E : xx;
    7E7F : xx;
    7E80 : xx;
    7E81 : xx;
    7E82 : xx;
    7E83 : xx;
    7E84 : xx;
    7E85 : xx;
    7E86 : xx;
    7E87 : xx;
    7E88 : xx;
    7E89 : xx;
    7E8A : xx;
    7E8B : xx;
    7E8C : xx;
    7E8D : xx;
    7E8E : xx;
    7E8F : xx;
    7E90 : xx;
    7E91 : xx;
    7E92 : xx;
    7E93 : xx;
    7E94 : xx;
    7E95 : xx;
    7E96 : xx;
    7E97 : xx;
    7E98 : xx;
    7E99 : xx;
    7E9A : xx;
    7E9B : xx;
    7E9C : xx;
    7E9D : xx;
    7E9E : xx;
    7E9F : xx;
    7EA0 : xx;
    7EA1 : xx;
    7EA2 : xx;
    7EA3 : xx;
    7EA4 : xx;
    7EA5 : xx;
    7EA6 : xx;
    7EA7 : xx;
    7EA8 : xx;
    7EA9 : xx;
    7EAA : xx;
    7EAB : xx;
    7EAC : xx;
    7EAD : xx;
    7EAE : xx;
    7EAF : xx;
    7EB0 : xx;
    7EB1 : xx;
    7EB2 : xx;
    7EB3 : xx;
    7EB4 : xx;
    7EB5 : xx;
    7EB6 : xx;
    7EB7 : xx;
    7EB8 : xx;
    7EB9 : xx;
    7EBA : xx;
    7EBB : xx;
    7EBC : xx;
    7EBD : xx;
    7EBE : xx;
    7EBF : xx;
    7EC0 : xx;
    7EC1 : xx;
    7EC2 : xx;
    7EC3 : xx;
    7EC4 : xx;
    7EC5 : xx;
    7EC6 : xx;
    7EC7 : xx;
    7EC8 : xx;
    7EC9 : xx;
    7ECA : xx;
    7ECB : xx;
    7ECC : xx;
    7ECD : xx;
    7ECE : xx;
    7ECF : xx;
    7ED0 : xx;
    7ED1 : xx;
    7ED2 : xx;
    7ED3 : xx;
    7ED4 : xx;
    7ED5 : xx;
    7ED6 : xx;
    7ED7 : xx;
    7ED8 : xx;
    7ED9 : xx;
    7EDA : xx;
    7EDB : xx;
    7EDC : xx;
    7EDD : xx;
    7EDE : xx;
    7EDF : xx;
    7EE0 : xx;
    7EE1 : xx;
    7EE2 : xx;
    7EE3 : xx;
    7EE4 : xx;
    7EE5 : xx;
    7EE6 : xx;
    7EE7 : xx;
    7EE8 : xx;
    7EE9 : xx;
    7EEA : xx;
    7EEB : xx;
    7EEC : xx;
    7EED : xx;
    7EEE : xx;
    7EEF : xx;
    7EF0 : xx;
    7EF1 : xx;
    7EF2 : xx;
    7EF3 : xx;
    7EF4 : xx;
    7EF5 : xx;
    7EF6 : xx;
    7EF7 : xx;
    7EF8 : xx;
    7EF9 : xx;
    7EFA : xx;
    7EFB : xx;
    7EFC : xx;
    7EFD : xx;
    7EFE : xx;
    7EFF : xx;
    7F00 : xx;
    7F01 : xx;
    7F02 : xx;
    7F03 : xx;
    7F04 : xx;
    7F05 : xx;
    7F06 : xx;
    7F07 : xx;
    7F08 : xx;
    7F09 : xx;
    7F0A : xx;
    7F0B : xx;
    7F0C : xx;
    7F0D : xx;
    7F0E : xx;
    7F0F : xx;
    7F10 : xx;
    7F11 : xx;
    7F12 : xx;
    7F13 : xx;
    7F14 : xx;
    7F15 : xx;
    7F16 : xx;
    7F17 : xx;
    7F18 : xx;
    7F19 : xx;
    7F1A : xx;
    7F1B : xx;
    7F1C : xx;
    7F1D : xx;
    7F1E : xx;
    7F1F : xx;
    7F20 : xx;
    7F21 : xx;
    7F22 : xx;
    7F23 : xx;
    7F24 : xx;
    7F25 : xx;
    7F26 : xx;
    7F27 : xx;
    7F28 : xx;
    7F29 : xx;
    7F2A : xx;
    7F2B : xx;
    7F2C : xx;
    7F2D : xx;
    7F2E : xx;
    7F2F : xx;
    7F30 : xx;
    7F31 : xx;
    7F32 : xx;
    7F33 : xx;
    7F34 : xx;
    7F35 : xx;
    7F36 : xx;
    7F37 : xx;
    7F38 : xx;
    7F39 : xx;
    7F3A : xx;
    7F3B : xx;
    7F3C : xx;
    7F3D : xx;
    7F3E : xx;
    7F3F : xx;
    7F40 : xx;
    7F41 : xx;
    7F42 : xx;
    7F43 : xx;
    7F44 : xx;
    7F45 : xx;
    7F46 : xx;
    7F47 : xx;
    7F48 : xx;
    7F49 : xx;
    7F4A : xx;
    7F4B : xx;
    7F4C : xx;
    7F4D : xx;
    7F4E : xx;
    7F4F : xx;
    7F50 : xx;
    7F51 : xx;
    7F52 : xx;
    7F53 : xx;
    7F54 : xx;
    7F55 : xx;
    7F56 : xx;
    7F57 : xx;
    7F58 : xx;
    7F59 : xx;
    7F5A : xx;
    7F5B : xx;
    7F5C : xx;
    7F5D : xx;
    7F5E : xx;
    7F5F : xx;
    7F60 : xx;
    7F61 : xx;
    7F62 : xx;
    7F63 : xx;
    7F64 : xx;
    7F65 : xx;
    7F66 : xx;
    7F67 : xx;
    7F68 : xx;
    7F69 : xx;
    7F6A : xx;
    7F6B : xx;
    7F6C : xx;
    7F6D : xx;
    7F6E : xx;
    7F6F : xx;
    7F70 : xx;
    7F71 : xx;
    7F72 : xx;
    7F73 : xx;
    7F74 : xx;
    7F75 : xx;
    7F76 : xx;
    7F77 : xx;
    7F78 : xx;
    7F79 : xx;
    7F7A : xx;
    7F7B : xx;
    7F7C : xx;
    7F7D : xx;
    7F7E : xx;
    7F7F : xx;
    7F80 : xx;
    7F81 : xx;
    7F82 : xx;
    7F83 : xx;
    7F84 : xx;
    7F85 : xx;
    7F86 : xx;
    7F87 : xx;
    7F88 : xx;
    7F89 : xx;
    7F8A : xx;
    7F8B : xx;
    7F8C : xx;
    7F8D : xx;
    7F8E : xx;
    7F8F : xx;
    7F90 : xx;
    7F91 : xx;
    7F92 : xx;
    7F93 : xx;
    7F94 : xx;
    7F95 : xx;
    7F96 : xx;
    7F97 : xx;
    7F98 : xx;
    7F99 : xx;
    7F9A : xx;
    7F9B : xx;
    7F9C : xx;
    7F9D : xx;
    7F9E : xx;
    7F9F : xx;
    7FA0 : xx;
    7FA1 : xx;
    7FA2 : xx;
    7FA3 : xx;
    7FA4 : xx;
    7FA5 : xx;
    7FA6 : xx;
    7FA7 : xx;
    7FA8 : xx;
    7FA9 : xx;
    7FAA : xx;
    7FAB : xx;
    7FAC : xx;
    7FAD : xx;
    7FAE : xx;
    7FAF : xx;
    7FB0 : xx;
    7FB1 : xx;
    7FB2 : xx;
    7FB3 : xx;
    7FB4 : xx;
    7FB5 : xx;
    7FB6 : xx;
    7FB7 : xx;
    7FB8 : xx;
    7FB9 : xx;
    7FBA : xx;
    7FBB : xx;
    7FBC : xx;
    7FBD : xx;
    7FBE : xx;
    7FBF : xx;
    7FC0 : xx;
    7FC1 : xx;
    7FC2 : xx;
    7FC3 : xx;
    7FC4 : xx;
    7FC5 : xx;
    7FC6 : xx;
    7FC7 : xx;
    7FC8 : xx;
    7FC9 : xx;
    7FCA : xx;
    7FCB : xx;
    7FCC : xx;
    7FCD : xx;
    7FCE : xx;
    7FCF : xx;
    7FD0 : xx;
    7FD1 : xx;
    7FD2 : xx;
    7FD3 : xx;
    7FD4 : xx;
    7FD5 : xx;
    7FD6 : xx;
    7FD7 : xx;
    7FD8 : xx;
    7FD9 : xx;
    7FDA : xx;
    7FDB : xx;
    7FDC : xx;
    7FDD : xx;
    7FDE : xx;
    7FDF : xx;
    7FE0 : xx;
    7FE1 : xx;
    7FE2 : xx;
    7FE3 : xx;
    7FE4 : xx;
    7FE5 : xx;
    7FE6 : xx;
    7FE7 : xx;
    7FE8 : xx;
    7FE9 : xx;
    7FEA : xx;
    7FEB : xx;
    7FEC : xx;
    7FED : xx;
    7FEE : xx;
    7FEF : xx;
    7FF0 : xx;
    7FF1 : xx;
    7FF2 : xx;
    7FF3 : xx;
    7FF4 : xx;
    7FF5 : xx;
    7FF6 : xx;
    7FF7 : xx;
    7FF8 : xx;
    7FF9 : xx;
    7FFA : xx;
    7FFB : xx;
    7FFC : xx;
    7FFD : xx;
    7FFE : xx;
    7FFF : xx;
END;