WIDTH=8;
DEPTH=202600;

ADDRESS_RADIX=HEX;
DATA_RADIX=HEX;

CONTENT BEGIN
    0 : 0;
    1 : 0;
    2 : 0;
    3 : 0;
    4 : FF;
    5 : FF;
    6 : FF;
    7 : FF;
    8 : FF;
    9 : FF;
    A : FF;
    B : FF;
    C : FF;
    D : FF;
    E : FF;
    F : FF;
    10 : FF;
    11 : FF;
    12 : FF;
    13 : FF;
    14 : FF;
    15 : FF;
    16 : FF;
    17 : FF;
    18 : FF;
    19 : FF;
    1A : FF;
    1B : FF;
    1C : FF;
    1D : FF;
    1E : FF;
    1F : FF;
    20 : FF;
    21 : FF;
    22 : FF;
    23 : FF;
    24 : FF;
    25 : FF;
    26 : FF;
    27 : FF;
    28 : FF;
    29 : FF;
    2A : FF;
    2B : FF;
    2C : FF;
    2D : FF;
    2E : FF;
    2F : FF;
    30 : FF;
    31 : FF;
    32 : FF;
    33 : FF;
    34 : FF;
    35 : FF;
    36 : FF;
    37 : FF;
    38 : FF;
    39 : FF;
    3A : FF;
    3B : FF;
    3C : FF;
    3D : FF;
    3E : FF;
    3F : FF;
    40 : FF;
    41 : FF;
    42 : FF;
    43 : FF;
    44 : FF;
    45 : FF;
    46 : FF;
    47 : FF;
    48 : FF;
    49 : FF;
    4A : FF;
    4B : FF;
    4C : FF;
    4D : FF;
    4E : FF;
    4F : FF;
    50 : FF;
    51 : FF;
    52 : FF;
    53 : FF;
    54 : FF;
    55 : FF;
    56 : FF;
    57 : FF;
    58 : FF;
    59 : FF;
    5A : FF;
    5B : FF;
    5C : FF;
    5D : FF;
    5E : FF;
    5F : FF;
    60 : FF;
    61 : FF;
    62 : FF;
    63 : FF;
    64 : FF;
    65 : FF;
    66 : FF;
    67 : FF;
    68 : FF;
    69 : FF;
    6A : FF;
    6B : FF;
    6C : FF;
    6D : FF;
    6E : FF;
    6F : FF;
    70 : FF;
    71 : FF;
    72 : FF;
    73 : FF;
    74 : FF;
    75 : FF;
    76 : FF;
    77 : FF;
    78 : FF;
    79 : FF;
    7A : FF;
    7B : FF;
    7C : FF;
    7D : FF;
    7E : FF;
    7F : FF;
    80 : FF;
    81 : FF;
    82 : FF;
    83 : FF;
    84 : FF;
    85 : FF;
    86 : FF;
    87 : FF;
    88 : FF;
    89 : FF;
    8A : FF;
    8B : FF;
    8C : FF;
    8D : FF;
    8E : FF;
    8F : FF;
    90 : FF;
    91 : FF;
    92 : FF;
    93 : FF;
    94 : FF;
    95 : FF;
    96 : FF;
    97 : FF;
    98 : FF;
    99 : FF;
    9A : FF;
    9B : FF;
    9C : FF;
    9D : FF;
    9E : FF;
    9F : FF;
    A0 : FF;
    A1 : FF;
    A2 : FF;
    A3 : FF;
    A4 : FF;
    A5 : FF;
    A6 : FF;
    A7 : FF;
    A8 : FF;
    A9 : FF;
    AA : FF;
    AB : FF;
    AC : FF;
    AD : FF;
    AE : FF;
    AF : FF;
    B0 : FF;
    B1 : FF;
    B2 : FF;
    B3 : FF;
    B4 : FF;
    B5 : FF;
    B6 : FF;
    B7 : FF;
    B8 : FF;
    B9 : FF;
    BA : FF;
    BB : FF;
    BC : FF;
    BD : FF;
    BE : FF;
    BF : FF;
    C0 : FF;
    C1 : FF;
    C2 : FF;
    C3 : FF;
    C4 : FF;
    C5 : FF;
    C6 : FF;
    C7 : FF;
    C8 : FF;
    C9 : FF;
    CA : FF;
    CB : FF;
    CC : FF;
    CD : FF;
    CE : FF;
    CF : FF;
    D0 : FF;
    D1 : FF;
    D2 : FF;
    D3 : FF;
    D4 : FF;
    D5 : FF;
    D6 : FF;
    D7 : FF;
    D8 : FF;
    D9 : FF;
    DA : FF;
    DB : FF;
    DC : FF;
    DD : FF;
    DE : FF;
    DF : FF;
    E0 : FF;
    E1 : FF;
    E2 : FF;
    E3 : FF;
    E4 : FF;
    E5 : FF;
    E6 : FF;
    E7 : FF;
    E8 : FF;
    E9 : FF;
    EA : FF;
    EB : FF;
    EC : FF;
    ED : FF;
    EE : FF;
    EF : FF;
    F0 : FF;
    F1 : FF;
    F2 : FF;
    F3 : FF;
    F4 : FF;
    F5 : FF;
    F6 : FF;
    F7 : FF;
    F8 : FF;
    F9 : FF;
    FA : FF;
    FB : FF;
    FC : FF;
    FD : FF;
    FE : FF;
    FF : FF;
    100 : FF;
    101 : FF;
    102 : FF;
    103 : FF;
    104 : FF;
    105 : FF;
    106 : FF;
    107 : FF;
    108 : FF;
    109 : FF;
    10A : FF;
    10B : FF;
    10C : FF;
    10D : FF;
    10E : FF;
    10F : FF;
    110 : FF;
    111 : FF;
    112 : FF;
    113 : FF;
    114 : FF;
    115 : FF;
    116 : FF;
    117 : FF;
    118 : FF;
    119 : FF;
    11A : FF;
    11B : FF;
    11C : FF;
    11D : FF;
    11E : FF;
    11F : FF;
    120 : FF;
    121 : FF;
    122 : FF;
    123 : FF;
    124 : FF;
    125 : FF;
    126 : FF;
    127 : FF;
    128 : FF;
    129 : FF;
    12A : FF;
    12B : FF;
    12C : FF;
    12D : FF;
    12E : FF;
    12F : FF;
    130 : FF;
    131 : FF;
    132 : FF;
    133 : FF;
    134 : FF;
    135 : FF;
    136 : FF;
    137 : FF;
    138 : FF;
    139 : FF;
    13A : FF;
    13B : FF;
    13C : FF;
    13D : FF;
    13E : FF;
    13F : FF;
    140 : FF;
    141 : FF;
    142 : FF;
    143 : FF;
    144 : FF;
    145 : FF;
    146 : FF;
    147 : FF;
    148 : FF;
    149 : FF;
    14A : FF;
    14B : FF;
    14C : FF;
    14D : FF;
    14E : FF;
    14F : FF;
    150 : FF;
    151 : FF;
    152 : FF;
    153 : FF;
    154 : FF;
    155 : FF;
    156 : FF;
    157 : FF;
    158 : FF;
    159 : FF;
    15A : FF;
    15B : FF;
    15C : FF;
    15D : FF;
    15E : FF;
    15F : FF;
    160 : FF;
    161 : FF;
    162 : FF;
    163 : FF;
    164 : FF;
    165 : FF;
    166 : FF;
    167 : FF;
    168 : FF;
    169 : FF;
    16A : FF;
    16B : FF;
    16C : FF;
    16D : FF;
    16E : FF;
    16F : FF;
    170 : FF;
    171 : FF;
    172 : FF;
    173 : FF;
    174 : FF;
    175 : FF;
    176 : FF;
    177 : FF;
    178 : FF;
    179 : FF;
    17A : FF;
    17B : FF;
    17C : FF;
    17D : FF;
    17E : FF;
    17F : FF;
    180 : FF;
    181 : FF;
    182 : FF;
    183 : FF;
    184 : FF;
    185 : FF;
    186 : FF;
    187 : FF;
    188 : FF;
    189 : FF;
    18A : FF;
    18B : FF;
    18C : FF;
    18D : FF;
    18E : FF;
    18F : FF;
    190 : FF;
    191 : FF;
    192 : FF;
    193 : FF;
    194 : FF;
    195 : FF;
    196 : FF;
    197 : FF;
    198 : FF;
    199 : FF;
    19A : FF;
    19B : FF;
    19C : FF;
    19D : FF;
    19E : FF;
    19F : FF;
    1A0 : FF;
    1A1 : FF;
    1A2 : FF;
    1A3 : FF;
    1A4 : FF;
    1A5 : FF;
    1A6 : FF;
    1A7 : FF;
    1A8 : FF;
    1A9 : FF;
    1AA : FF;
    1AB : FF;
    1AC : FF;
    1AD : FF;
    1AE : FF;
    1AF : FF;
    1B0 : FF;
    1B1 : FF;
    1B2 : FF;
    1B3 : FF;
    1B4 : FF;
    1B5 : FF;
    1B6 : FF;
    1B7 : FF;
    1B8 : FF;
    1B9 : FF;
    1BA : FF;
    1BB : FF;
    1BC : FF;
    1BD : FF;
    1BE : FF;
    1BF : FF;
    1C0 : FF;
    1C1 : FF;
    1C2 : FF;
    1C3 : FF;
    1C4 : FF;
    1C5 : FF;
    1C6 : FF;
    1C7 : FF;
    1C8 : FF;
    1C9 : FF;
    1CA : FF;
    1CB : FF;
    1CC : FF;
    1CD : FF;
    1CE : FF;
    1CF : FF;
    1D0 : FF;
    1D1 : FF;
    1D2 : FF;
    1D3 : FF;
    1D4 : FF;
    1D5 : FF;
    1D6 : FF;
    1D7 : FF;
    1D8 : FF;
    1D9 : FF;
    1DA : FF;
    1DB : FF;
    1DC : FF;
    1DD : FF;
    1DE : FF;
    1DF : FF;
    1E0 : FF;
    1E1 : FF;
    1E2 : FF;
    1E3 : FF;
    1E4 : FF;
    1E5 : FF;
    1E6 : FF;
    1E7 : FF;
    1E8 : FF;
    1E9 : FF;
    1EA : FF;
    1EB : FF;
    1EC : FF;
    1ED : FF;
    1EE : FF;
    1EF : FF;
    1F0 : FF;
    1F1 : FF;
    1F2 : FF;
    1F3 : FF;
    1F4 : FF;
    1F5 : FF;
    1F6 : FF;
    1F7 : FF;
    1F8 : FF;
    1F9 : FF;
    1FA : FF;
    1FB : FF;
    1FC : FF;
    1FD : FF;
    1FE : FF;
    1FF : FF;
    200 : FF;
    201 : FF;
    202 : FF;
    203 : FF;
    204 : FF;
    205 : FF;
    206 : FF;
    207 : FF;
    208 : FF;
    209 : FF;
    20A : FF;
    20B : FF;
    20C : FF;
    20D : FF;
    20E : FF;
    20F : FF;
    210 : FF;
    211 : FF;
    212 : FF;
    213 : FF;
    214 : FF;
    215 : FF;
    216 : FF;
    217 : FF;
    218 : FF;
    219 : FF;
    21A : FF;
    21B : FF;
    21C : FF;
    21D : FF;
    21E : FF;
    21F : FF;
    220 : FF;
    221 : FF;
    222 : FF;
    223 : FF;
    224 : FF;
    225 : FF;
    226 : FF;
    227 : FF;
    228 : FF;
    229 : FF;
    22A : FF;
    22B : FF;
    22C : FF;
    22D : FF;
    22E : FF;
    22F : FF;
    230 : FF;
    231 : FF;
    232 : FF;
    233 : FF;
    234 : FF;
    235 : FF;
    236 : FF;
    237 : FF;
    238 : FF;
    239 : FF;
    23A : FF;
    23B : FF;
    23C : FF;
    23D : FF;
    23E : FF;
    23F : FF;
    240 : FF;
    241 : FF;
    242 : FF;
    243 : FF;
    244 : FF;
    245 : FF;
    246 : FF;
    247 : FF;
    248 : FF;
    249 : FF;
    24A : FF;
    24B : FF;
    24C : FF;
    24D : FF;
    24E : FF;
    24F : FF;
    250 : FF;
    251 : FF;
    252 : FF;
    253 : FF;
    254 : FF;
    255 : FF;
    256 : FF;
    257 : FF;
    258 : FF;
    259 : FF;
    25A : FF;
    25B : FF;
    25C : FF;
    25D : FF;
    25E : FF;
    25F : FF;
    260 : FF;
    261 : FF;
    262 : FF;
    263 : FF;
    264 : FF;
    265 : FF;
    266 : FF;
    267 : FF;
    268 : FF;
    269 : FF;
    26A : FF;
    26B : FF;
    26C : FF;
    26D : FF;
    26E : FF;
    26F : FF;
    270 : FF;
    271 : FF;
    272 : FF;
    273 : FF;
    274 : FF;
    275 : FF;
    276 : FF;
    277 : FF;
    278 : FF;
    279 : FF;
    27A : FF;
    27B : FF;
    27C : FF;
    27D : FF;
    27E : FF;
    27F : FF;
    280 : FF;
    281 : FF;
    282 : FF;
    283 : FF;
    284 : FF;
    285 : FF;
    286 : FF;
    287 : FF;
    288 : FF;
    289 : FF;
    28A : FF;
    28B : FF;
    28C : FF;
    28D : FF;
    28E : FF;
    28F : FF;
    290 : FF;
    291 : FF;
    292 : FF;
    293 : FF;
    294 : FF;
    295 : FF;
    296 : FF;
    297 : FF;
    298 : FF;
    299 : FF;
    29A : FF;
    29B : FF;
    29C : FF;
    29D : FF;
    29E : FF;
    29F : FF;
    2A0 : FF;
    2A1 : FF;
    2A2 : FF;
    2A3 : FF;
    2A4 : FF;
    2A5 : FF;
    2A6 : FF;
    2A7 : FF;
    2A8 : FF;
    2A9 : FF;
    2AA : FF;
    2AB : FF;
    2AC : FF;
    2AD : FF;
    2AE : FF;
    2AF : FF;
    2B0 : FF;
    2B1 : FF;
    2B2 : FF;
    2B3 : FF;
    2B4 : FF;
    2B5 : FF;
    2B6 : FF;
    2B7 : FF;
    2B8 : FF;
    2B9 : FF;
    2BA : FF;
    2BB : FF;
    2BC : FF;
    2BD : FF;
    2BE : FF;
    2BF : FF;
    2C0 : FF;
    2C1 : FF;
    2C2 : FF;
    2C3 : FF;
    2C4 : FF;
    2C5 : FF;
    2C6 : FF;
    2C7 : FF;
    2C8 : FF;
    2C9 : FF;
    2CA : FF;
    2CB : FF;
    2CC : FF;
    2CD : FF;
    2CE : FF;
    2CF : FF;
    2D0 : FF;
    2D1 : FF;
    2D2 : FF;
    2D3 : FF;
    2D4 : FF;
    2D5 : FF;
    2D6 : FF;
    2D7 : FF;
    2D8 : FF;
    2D9 : FF;
    2DA : FF;
    2DB : FF;
    2DC : FF;
    2DD : FF;
    2DE : FF;
    2DF : FF;
    2E0 : FF;
    2E1 : FF;
    2E2 : FF;
    2E3 : FF;
    2E4 : FF;
    2E5 : FF;
    2E6 : FF;
    2E7 : FF;
    2E8 : FF;
    2E9 : FF;
    2EA : FF;
    2EB : FF;
    2EC : FF;
    2ED : FF;
    2EE : FF;
    2EF : FF;
    2F0 : FF;
    2F1 : FF;
    2F2 : FF;
    2F3 : FF;
    2F4 : FF;
    2F5 : FF;
    2F6 : FF;
    2F7 : FF;
    2F8 : FF;
    2F9 : FF;
    2FA : FF;
    2FB : FF;
    2FC : FF;
    2FD : FF;
    2FE : FF;
    2FF : FF;
    300 : FF;
    301 : FF;
    302 : FF;
    303 : FF;
    304 : FF;
    305 : FF;
    306 : FF;
    307 : FF;
    308 : FF;
    309 : FF;
    30A : FF;
    30B : FF;
    30C : FF;
    30D : FF;
    30E : FF;
    30F : FF;
    310 : FF;
    311 : FF;
    312 : FF;
    313 : FF;
    314 : FF;
    315 : FF;
    316 : FF;
    317 : FF;
    318 : FF;
    319 : FF;
    31A : FF;
    31B : FF;
    31C : FF;
    31D : FF;
    31E : FF;
    31F : FF;
    320 : FF;
    321 : FF;
    322 : FF;
    323 : FF;
    324 : FF;
    325 : FF;
    326 : FF;
    327 : FF;
    328 : FF;
    329 : FF;
    32A : FF;
    32B : FF;
    32C : FF;
    32D : FF;
    32E : FF;
    32F : FF;
    330 : FF;
    331 : FF;
    332 : FF;
    333 : FF;
    334 : FF;
    335 : FF;
    336 : FF;
    337 : FF;
    338 : FF;
    339 : FF;
    33A : FF;
    33B : FF;
    33C : FF;
    33D : FF;
    33E : FF;
    33F : FF;
    340 : FF;
    341 : FF;
    342 : FF;
    343 : FF;
    344 : FF;
    345 : FF;
    346 : FF;
    347 : FF;
    348 : FF;
    349 : FF;
    34A : FF;
    34B : FF;
    34C : FF;
    34D : FF;
    34E : FF;
    34F : FF;
    350 : FF;
    351 : FF;
    352 : FF;
    353 : FF;
    354 : FF;
    355 : FF;
    356 : FF;
    357 : FF;
    358 : FF;
    359 : FF;
    35A : FF;
    35B : FF;
    35C : FF;
    35D : FF;
    35E : FF;
    35F : FF;
    360 : FF;
    361 : FF;
    362 : FF;
    363 : FF;
    364 : FF;
    365 : FF;
    366 : FF;
    367 : FF;
    368 : FF;
    369 : FF;
    36A : FF;
    36B : FF;
    36C : FF;
    36D : FF;
    36E : FF;
    36F : FF;
    370 : FF;
    371 : FF;
    372 : FF;
    373 : FF;
    374 : FF;
    375 : FF;
    376 : FF;
    377 : FF;
    378 : FF;
    379 : FF;
    37A : FF;
    37B : FF;
    37C : FF;
    37D : FF;
    37E : FF;
    37F : FF;
    380 : FF;
    381 : FF;
    382 : FF;
    383 : FF;
    384 : FF;
    385 : FF;
    386 : FF;
    387 : FF;
    388 : FF;
    389 : FF;
    38A : FF;
    38B : FF;
    38C : FF;
    38D : FF;
    38E : FF;
    38F : FF;
    390 : FF;
    391 : FF;
    392 : FF;
    393 : FF;
    394 : FF;
    395 : FF;
    396 : FF;
    397 : FF;
    398 : FF;
    399 : FF;
    39A : FF;
    39B : FF;
    39C : FF;
    39D : FF;
    39E : FF;
    39F : FF;
    3A0 : FF;
    3A1 : FF;
    3A2 : FF;
    3A3 : FF;
    3A4 : FF;
    3A5 : FF;
    3A6 : FF;
    3A7 : FF;
    3A8 : FF;
    3A9 : FF;
    3AA : FF;
    3AB : FF;
    3AC : FF;
    3AD : FF;
    3AE : FF;
    3AF : FF;
    3B0 : FF;
    3B1 : FF;
    3B2 : FF;
    3B3 : FF;
    3B4 : FF;
    3B5 : FF;
    3B6 : FF;
    3B7 : FF;
    3B8 : FF;
    3B9 : FF;
    3BA : FF;
    3BB : FF;
    3BC : FF;
    3BD : FF;
    3BE : FF;
    3BF : FF;
    3C0 : FF;
    3C1 : FF;
    3C2 : FF;
    3C3 : FF;
    3C4 : FF;
    3C5 : FF;
    3C6 : FF;
    3C7 : FF;
    3C8 : FF;
    3C9 : FF;
    3CA : FF;
    3CB : FF;
    3CC : FF;
    3CD : FF;
    3CE : FF;
    3CF : FF;
    3D0 : FF;
    3D1 : FF;
    3D2 : FF;
    3D3 : FF;
    3D4 : FF;
    3D5 : FF;
    3D6 : FF;
    3D7 : FF;
    3D8 : FF;
    3D9 : FF;
    3DA : FF;
    3DB : FF;
    3DC : FF;
    3DD : FF;
    3DE : FF;
    3DF : FF;
    3E0 : FF;
    3E1 : FF;
    3E2 : FF;
    3E3 : FF;
    3E4 : FF;
    3E5 : FF;
    3E6 : FF;
    3E7 : FF;
    3E8 : FF;
    3E9 : FF;
    3EA : FF;
    3EB : FF;
    3EC : FF;
    3ED : FF;
    3EE : FF;
    3EF : FF;
    3F0 : FF;
    3F1 : FF;
    3F2 : FF;
    3F3 : FF;
    3F4 : FF;
    3F5 : FF;
    3F6 : FF;
    3F7 : FF;
    3F8 : FF;
    3F9 : FF;
    3FA : FF;
    3FB : FF;
    3FC : FF;
    3FD : FF;
    3FE : FF;
    3FF : FF;
    400 : FF;
    401 : FF;
    402 : FF;
    403 : FF;
    404 : FF;
    405 : FF;
    406 : FF;
    407 : FF;
    408 : FF;
    409 : FF;
    40A : FF;
    40B : FF;
    40C : FF;
    40D : FF;
    40E : FF;
    40F : FF;
    410 : FF;
    411 : FF;
    412 : FF;
    413 : FF;
    414 : FF;
    415 : FF;
    416 : FF;
    417 : FF;
    418 : FF;
    419 : FF;
    41A : FF;
    41B : FF;
    41C : FF;
    41D : FF;
    41E : FF;
    41F : FF;
    420 : FF;
    421 : FF;
    422 : FF;
    423 : FF;
    424 : FF;
    425 : FF;
    426 : FF;
    427 : FF;
    428 : FF;
    429 : FF;
    42A : FF;
    42B : FF;
    42C : FF;
    42D : FF;
    42E : FF;
    42F : FF;
    430 : FF;
    431 : FF;
    432 : FF;
    433 : FF;
    434 : FF;
    435 : FF;
    436 : FF;
    437 : FF;
    438 : FF;
    439 : FF;
    43A : FF;
    43B : FF;
    43C : FF;
    43D : FF;
    43E : FF;
    43F : FF;
    440 : FF;
    441 : FF;
    442 : FF;
    443 : FF;
    444 : FF;
    445 : FF;
    446 : FF;
    447 : FF;
    448 : FF;
    449 : FF;
    44A : FF;
    44B : FF;
    44C : FF;
    44D : FF;
    44E : FF;
    44F : FF;
    450 : FF;
    451 : FF;
    452 : FF;
    453 : FF;
    454 : FF;
    455 : FF;
    456 : FF;
    457 : FF;
    458 : FF;
    459 : FF;
    45A : FF;
    45B : FF;
    45C : FF;
    45D : FF;
    45E : FF;
    45F : FF;
    460 : FF;
    461 : FF;
    462 : FF;
    463 : FF;
    464 : FF;
    465 : FF;
    466 : FF;
    467 : FF;
    468 : FF;
    469 : FF;
    46A : FF;
    46B : FF;
    46C : FF;
    46D : FF;
    46E : FF;
    46F : FF;
    470 : FF;
    471 : FF;
    472 : FF;
    473 : FF;
    474 : FF;
    475 : FF;
    476 : FF;
    477 : FF;
    478 : FF;
    479 : FF;
    47A : FF;
    47B : FF;
    47C : FF;
    47D : FF;
    47E : FF;
    47F : FF;
    480 : FF;
    481 : FF;
    482 : FF;
    483 : FF;
    484 : FF;
    485 : FF;
    486 : FF;
    487 : FF;
    488 : FF;
    489 : FF;
    48A : FF;
    48B : FF;
    48C : FF;
    48D : FF;
    48E : FF;
    48F : FF;
    490 : FF;
    491 : FF;
    492 : FF;
    493 : FF;
    494 : FF;
    495 : FF;
    496 : FF;
    497 : FF;
    498 : FF;
    499 : FF;
    49A : FF;
    49B : FF;
    49C : FF;
    49D : FF;
    49E : FF;
    49F : FF;
    4A0 : FF;
    4A1 : FF;
    4A2 : FF;
    4A3 : FF;
    4A4 : FF;
    4A5 : FF;
    4A6 : FF;
    4A7 : FF;
    4A8 : FF;
    4A9 : FF;
    4AA : FF;
    4AB : FF;
    4AC : FF;
    4AD : FF;
    4AE : FF;
    4AF : FF;
    4B0 : FF;
    4B1 : FF;
    4B2 : FF;
    4B3 : FF;
    4B4 : FF;
    4B5 : FF;
    4B6 : FF;
    4B7 : FF;
    4B8 : FF;
    4B9 : FF;
    4BA : FF;
    4BB : FF;
    4BC : FF;
    4BD : FF;
    4BE : FF;
    4BF : FF;
    4C0 : FF;
    4C1 : FF;
    4C2 : FF;
    4C3 : FF;
    4C4 : FF;
    4C5 : FF;
    4C6 : FF;
    4C7 : FF;
    4C8 : FF;
    4C9 : FF;
    4CA : FF;
    4CB : FF;
    4CC : FF;
    4CD : FF;
    4CE : FF;
    4CF : FF;
    4D0 : FF;
    4D1 : FF;
    4D2 : FF;
    4D3 : FF;
    4D4 : FF;
    4D5 : FF;
    4D6 : FF;
    4D7 : FF;
    4D8 : FF;
    4D9 : FF;
    4DA : FF;
    4DB : FF;
    4DC : FF;
    4DD : FF;
    4DE : FF;
    4DF : FF;
    4E0 : FF;
    4E1 : FF;
    4E2 : FF;
    4E3 : FF;
    4E4 : FF;
    4E5 : FF;
    4E6 : FF;
    4E7 : FF;
    4E8 : FF;
    4E9 : FF;
    4EA : FF;
    4EB : FF;
    4EC : FF;
    4ED : FF;
    4EE : FF;
    4EF : FF;
    4F0 : FF;
    4F1 : FF;
    4F2 : FF;
    4F3 : FF;
    4F4 : FF;
    4F5 : FF;
    4F6 : FF;
    4F7 : FF;
    4F8 : FF;
    4F9 : FF;
    4FA : FF;
    4FB : FF;
    4FC : FF;
    4FD : FF;
    4FE : FF;
    4FF : FF;
    500 : FF;
    501 : FF;
    502 : FF;
    503 : FF;
    504 : FF;
    505 : FF;
    506 : FF;
    507 : FF;
    508 : FF;
    509 : FF;
    50A : FF;
    50B : FF;
    50C : FF;
    50D : FF;
    50E : FF;
    50F : FF;
    510 : FF;
    511 : FF;
    512 : FF;
    513 : FF;
    514 : FF;
    515 : FF;
    516 : FF;
    517 : FF;
    518 : FF;
    519 : FF;
    51A : FF;
    51B : FF;
    51C : FF;
    51D : FF;
    51E : FF;
    51F : FF;
    520 : FF;
    521 : FF;
    522 : FF;
    523 : FF;
    524 : FF;
    525 : FF;
    526 : FF;
    527 : FF;
    528 : FF;
    529 : FF;
    52A : FF;
    52B : FF;
    52C : FF;
    52D : FF;
    52E : FF;
    52F : FF;
    530 : FF;
    531 : FF;
    532 : FF;
    533 : FF;
    534 : FF;
    535 : FF;
    536 : FF;
    537 : FF;
    538 : FF;
    539 : FF;
    53A : FF;
    53B : FF;
    53C : FF;
    53D : FF;
    53E : FF;
    53F : FF;
    540 : FF;
    541 : FF;
    542 : FF;
    543 : FF;
    544 : FF;
    545 : FF;
    546 : FF;
    547 : FF;
    548 : FF;
    549 : FF;
    54A : FF;
    54B : FF;
    54C : FF;
    54D : FF;
    54E : FF;
    54F : FF;
    550 : FF;
    551 : FF;
    552 : FF;
    553 : FF;
    554 : FF;
    555 : FF;
    556 : FF;
    557 : FF;
    558 : FF;
    559 : FF;
    55A : FF;
    55B : FF;
    55C : FF;
    55D : FF;
    55E : FF;
    55F : FF;
    560 : FF;
    561 : FF;
    562 : FF;
    563 : FF;
    564 : FF;
    565 : FF;
    566 : FF;
    567 : FF;
    568 : FF;
    569 : FF;
    56A : FF;
    56B : FF;
    56C : FF;
    56D : FF;
    56E : FF;
    56F : FF;
    570 : FF;
    571 : FF;
    572 : FF;
    573 : FF;
    574 : FF;
    575 : FF;
    576 : FF;
    577 : FF;
    578 : FF;
    579 : FF;
    57A : FF;
    57B : FF;
    57C : FF;
    57D : FF;
    57E : FF;
    57F : FF;
    580 : FF;
    581 : FF;
    582 : FF;
    583 : FF;
    584 : FF;
    585 : FF;
    586 : FF;
    587 : FF;
    588 : FF;
    589 : FF;
    58A : FF;
    58B : FF;
    58C : FF;
    58D : FF;
    58E : FF;
    58F : FF;
    590 : FF;
    591 : FF;
    592 : FF;
    593 : FF;
    594 : FF;
    595 : FF;
    596 : FF;
    597 : FF;
    598 : FF;
    599 : FF;
    59A : FF;
    59B : FF;
    59C : FF;
    59D : FF;
    59E : FF;
    59F : FF;
    5A0 : FF;
    5A1 : FF;
    5A2 : FF;
    5A3 : FF;
    5A4 : FF;
    5A5 : FF;
    5A6 : FF;
    5A7 : FF;
    5A8 : FF;
    5A9 : FF;
    5AA : FF;
    5AB : FF;
    5AC : FF;
    5AD : FF;
    5AE : FF;
    5AF : FF;
    5B0 : FF;
    5B1 : FF;
    5B2 : FF;
    5B3 : FF;
    5B4 : FF;
    5B5 : FF;
    5B6 : FF;
    5B7 : FF;
    5B8 : FF;
    5B9 : FF;
    5BA : FF;
    5BB : FF;
    5BC : FF;
    5BD : FF;
    5BE : FF;
    5BF : FF;
    5C0 : FF;
    5C1 : FF;
    5C2 : FF;
    5C3 : FF;
    5C4 : FF;
    5C5 : FF;
    5C6 : FF;
    5C7 : FF;
    5C8 : FF;
    5C9 : FF;
    5CA : FF;
    5CB : FF;
    5CC : FF;
    5CD : FF;
    5CE : FF;
    5CF : FF;
    5D0 : FF;
    5D1 : FF;
    5D2 : FF;
    5D3 : FF;
    5D4 : FF;
    5D5 : FF;
    5D6 : FF;
    5D7 : FF;
    5D8 : FF;
    5D9 : FF;
    5DA : FF;
    5DB : FF;
    5DC : FF;
    5DD : FF;
    5DE : FF;
    5DF : FF;
    5E0 : FF;
    5E1 : FF;
    5E2 : FF;
    5E3 : FF;
    5E4 : FF;
    5E5 : FF;
    5E6 : FF;
    5E7 : FF;
    5E8 : FF;
    5E9 : FF;
    5EA : FF;
    5EB : FF;
    5EC : FF;
    5ED : FF;
    5EE : FF;
    5EF : FF;
    5F0 : FF;
    5F1 : FF;
    5F2 : FF;
    5F3 : FF;
    5F4 : FF;
    5F5 : FF;
    5F6 : FF;
    5F7 : FF;
    5F8 : FF;
    5F9 : FF;
    5FA : FF;
    5FB : FF;
    5FC : FF;
    5FD : FF;
    5FE : FF;
    5FF : FF;
    600 : FF;
    601 : FF;
    602 : FF;
    603 : FF;
    604 : FF;
    605 : FF;
    606 : FF;
    607 : FF;
    608 : FF;
    609 : FF;
    60A : FF;
    60B : FF;
    60C : FF;
    60D : FF;
    60E : FF;
    60F : FF;
    610 : FF;
    611 : FF;
    612 : FF;
    613 : FF;
    614 : FF;
    615 : FF;
    616 : FF;
    617 : FF;
    618 : FF;
    619 : FF;
    61A : FF;
    61B : FF;
    61C : FF;
    61D : FF;
    61E : FF;
    61F : FF;
    620 : FF;
    621 : FF;
    622 : FF;
    623 : FF;
    624 : FF;
    625 : FF;
    626 : FF;
    627 : FF;
    628 : FF;
    629 : FF;
    62A : FF;
    62B : FF;
    62C : FF;
    62D : FF;
    62E : FF;
    62F : FF;
    630 : FF;
    631 : FF;
    632 : FF;
    633 : FF;
    634 : FF;
    635 : FF;
    636 : FF;
    637 : FF;
    638 : FF;
    639 : FF;
    63A : FF;
    63B : FF;
    63C : FF;
    63D : FF;
    63E : FF;
    63F : FF;
    640 : FF;
    641 : FF;
    642 : FF;
    643 : FF;
    644 : FF;
    645 : FF;
    646 : FF;
    647 : FF;
    648 : FF;
    649 : FF;
    64A : FF;
    64B : FF;
    64C : FF;
    64D : FF;
    64E : FF;
    64F : FF;
    650 : FF;
    651 : FF;
    652 : FF;
    653 : FF;
    654 : FF;
    655 : FF;
    656 : FF;
    657 : FF;
    658 : FF;
    659 : FF;
    65A : FF;
    65B : FF;
    65C : FF;
    65D : FF;
    65E : FF;
    65F : FF;
    660 : FF;
    661 : FF;
    662 : FF;
    663 : FF;
    664 : FF;
    665 : FF;
    666 : FF;
    667 : FF;
    668 : FF;
    669 : FF;
    66A : FF;
    66B : FF;
    66C : FF;
    66D : FF;
    66E : FF;
    66F : FF;
    670 : FF;
    671 : FF;
    672 : FF;
    673 : FF;
    674 : FF;
    675 : FF;
    676 : FF;
    677 : FF;
    678 : FF;
    679 : FF;
    67A : FF;
    67B : FF;
    67C : FF;
    67D : FF;
    67E : FF;
    67F : FF;
    680 : FF;
    681 : FF;
    682 : FF;
    683 : FF;
    684 : FF;
    685 : FF;
    686 : FF;
    687 : FF;
    688 : FF;
    689 : FF;
    68A : FF;
    68B : FF;
    68C : FF;
    68D : FF;
    68E : FF;
    68F : FF;
    690 : FF;
    691 : FF;
    692 : FF;
    693 : FF;
    694 : FF;
    695 : FF;
    696 : FF;
    697 : FF;
    698 : FF;
    699 : FF;
    69A : FF;
    69B : FF;
    69C : FF;
    69D : FF;
    69E : FF;
    69F : FF;
    6A0 : FF;
    6A1 : FF;
    6A2 : FF;
    6A3 : FF;
    6A4 : FF;
    6A5 : FF;
    6A6 : FF;
    6A7 : FF;
    6A8 : FF;
    6A9 : FF;
    6AA : FF;
    6AB : FF;
    6AC : FF;
    6AD : FF;
    6AE : FF;
    6AF : FF;
    6B0 : FF;
    6B1 : FF;
    6B2 : FF;
    6B3 : FF;
    6B4 : FF;
    6B5 : FF;
    6B6 : FF;
    6B7 : FF;
    6B8 : FF;
    6B9 : FF;
    6BA : FF;
    6BB : FF;
    6BC : FF;
    6BD : FF;
    6BE : FF;
    6BF : FF;
    6C0 : FF;
    6C1 : FF;
    6C2 : FF;
    6C3 : FF;
    6C4 : FF;
    6C5 : FF;
    6C6 : FF;
    6C7 : FF;
    6C8 : FF;
    6C9 : FF;
    6CA : FF;
    6CB : FF;
    6CC : FF;
    6CD : FF;
    6CE : FF;
    6CF : FF;
    6D0 : FF;
    6D1 : FF;
    6D2 : FF;
    6D3 : FF;
    6D4 : FF;
    6D5 : FF;
    6D6 : FF;
    6D7 : FF;
    6D8 : FF;
    6D9 : FF;
    6DA : FF;
    6DB : FF;
    6DC : FF;
    6DD : FF;
    6DE : FF;
    6DF : FF;
    6E0 : FF;
    6E1 : FF;
    6E2 : FF;
    6E3 : FF;
    6E4 : FF;
    6E5 : FF;
    6E6 : FF;
    6E7 : FF;
    6E8 : FF;
    6E9 : FF;
    6EA : FF;
    6EB : FF;
    6EC : FF;
    6ED : FF;
    6EE : FF;
    6EF : FF;
    6F0 : FF;
    6F1 : FF;
    6F2 : FF;
    6F3 : FF;
    6F4 : FF;
    6F5 : FF;
    6F6 : FF;
    6F7 : FF;
    6F8 : FF;
    6F9 : FF;
    6FA : FF;
    6FB : FF;
    6FC : FF;
    6FD : FF;
    6FE : FF;
    6FF : FF;
    700 : FF;
    701 : FF;
    702 : FF;
    703 : FF;
    704 : FF;
    705 : FF;
    706 : FF;
    707 : FF;
    708 : FF;
    709 : FF;
    70A : FF;
    70B : FF;
    70C : FF;
    70D : FF;
    70E : FF;
    70F : FF;
    710 : FF;
    711 : FF;
    712 : FF;
    713 : FF;
    714 : FF;
    715 : FF;
    716 : FF;
    717 : FF;
    718 : FF;
    719 : FF;
    71A : FF;
    71B : FF;
    71C : FF;
    71D : FF;
    71E : FF;
    71F : FF;
    720 : FF;
    721 : FF;
    722 : FF;
    723 : FF;
    724 : FF;
    725 : FF;
    726 : FF;
    727 : FF;
    728 : FF;
    729 : FF;
    72A : FF;
    72B : FF;
    72C : FF;
    72D : FF;
    72E : FF;
    72F : FF;
    730 : FF;
    731 : FF;
    732 : FF;
    733 : FF;
    734 : FF;
    735 : FF;
    736 : FF;
    737 : FF;
    738 : FF;
    739 : FF;
    73A : FF;
    73B : FF;
    73C : FF;
    73D : FF;
    73E : FF;
    73F : FF;
    740 : FF;
    741 : FF;
    742 : FF;
    743 : FF;
    744 : FF;
    745 : FF;
    746 : FF;
    747 : FF;
    748 : FF;
    749 : FF;
    74A : FF;
    74B : FF;
    74C : FF;
    74D : FF;
    74E : FF;
    74F : FF;
    750 : FF;
    751 : FF;
    752 : FF;
    753 : FF;
    754 : FF;
    755 : FF;
    756 : FF;
    757 : FF;
    758 : FF;
    759 : FF;
    75A : FF;
    75B : FF;
    75C : FF;
    75D : FF;
    75E : FF;
    75F : FF;
    760 : FF;
    761 : FF;
    762 : FF;
    763 : FF;
    764 : FF;
    765 : FF;
    766 : FF;
    767 : FF;
    768 : FF;
    769 : FF;
    76A : FF;
    76B : FF;
    76C : FF;
    76D : FF;
    76E : FF;
    76F : FF;
    770 : FF;
    771 : FF;
    772 : FF;
    773 : FF;
    774 : FF;
    775 : FF;
    776 : FF;
    777 : FF;
    778 : FF;
    779 : FF;
    77A : FF;
    77B : FF;
    77C : FF;
    77D : FF;
    77E : FF;
    77F : FF;
    780 : FF;
    781 : FF;
    782 : FF;
    783 : FF;
    784 : FF;
    785 : FF;
    786 : FF;
    787 : FF;
    788 : FF;
    789 : FF;
    78A : FF;
    78B : FF;
    78C : FF;
    78D : FF;
    78E : FF;
    78F : FF;
    790 : FF;
    791 : FF;
    792 : FF;
    793 : FF;
    794 : FF;
    795 : FF;
    796 : FF;
    797 : FF;
    798 : FF;
    799 : FF;
    79A : FF;
    79B : FF;
    79C : FF;
    79D : FF;
    79E : FF;
    79F : FF;
    7A0 : FF;
    7A1 : FF;
    7A2 : FF;
    7A3 : FF;
    7A4 : FF;
    7A5 : FF;
    7A6 : FF;
    7A7 : FF;
    7A8 : FF;
    7A9 : FF;
    7AA : FF;
    7AB : FF;
    7AC : FF;
    7AD : FF;
    7AE : FF;
    7AF : FF;
    7B0 : FF;
    7B1 : FF;
    7B2 : FF;
    7B3 : FF;
    7B4 : FF;
    7B5 : FF;
    7B6 : FF;
    7B7 : FF;
    7B8 : FF;
    7B9 : FF;
    7BA : FF;
    7BB : FF;
    7BC : FF;
    7BD : FF;
    7BE : FF;
    7BF : FF;
    7C0 : FF;
    7C1 : FF;
    7C2 : FF;
    7C3 : FF;
    7C4 : FF;
    7C5 : FF;
    7C6 : FF;
    7C7 : FF;
    7C8 : FF;
    7C9 : FF;
    7CA : FF;
    7CB : FF;
    7CC : FF;
    7CD : FF;
    7CE : FF;
    7CF : FF;
    7D0 : FF;
    7D1 : FF;
    7D2 : FF;
    7D3 : FF;
    7D4 : FF;
    7D5 : FF;
    7D6 : FF;
    7D7 : FF;
    7D8 : FF;
    7D9 : FF;
    7DA : FF;
    7DB : FF;
    7DC : FF;
    7DD : FF;
    7DE : FF;
    7DF : FF;
    7E0 : FF;
    7E1 : FF;
    7E2 : FF;
    7E3 : FF;
    7E4 : FF;
    7E5 : FF;
    7E6 : FF;
    7E7 : FF;
    7E8 : FF;
    7E9 : FF;
    7EA : FF;
    7EB : FF;
    7EC : FF;
    7ED : FF;
    7EE : FF;
    7EF : FF;
    7F0 : FF;
    7F1 : FF;
    7F2 : FF;
    7F3 : FF;
    7F4 : FF;
    7F5 : FF;
    7F6 : FF;
    7F7 : FF;
    7F8 : FF;
    7F9 : FF;
    7FA : FF;
    7FB : FF;
    7FC : FF;
    7FD : FF;
    7FE : FF;
    7FF : FF;
    800 : FF;
    801 : FF;
    802 : FF;
    803 : FF;
    804 : FF;
    805 : FF;
    806 : FF;
    807 : FF;
    808 : FF;
    809 : FF;
    80A : FF;
    80B : FF;
    80C : FF;
    80D : FF;
    80E : FF;
    80F : FF;
    810 : FF;
    811 : FF;
    812 : FF;
    813 : FF;
    814 : FF;
    815 : FF;
    816 : FF;
    817 : FF;
    818 : FF;
    819 : FF;
    81A : FF;
    81B : FF;
    81C : FF;
    81D : FF;
    81E : FF;
    81F : FF;
    820 : FF;
    821 : FF;
    822 : FF;
    823 : FF;
    824 : FF;
    825 : FF;
    826 : FF;
    827 : FF;
    828 : FF;
    829 : FF;
    82A : FF;
    82B : FF;
    82C : FF;
    82D : FF;
    82E : FF;
    82F : FF;
    830 : FF;
    831 : FF;
    832 : FF;
    833 : FF;
    834 : FF;
    835 : FF;
    836 : FF;
    837 : FF;
    838 : FF;
    839 : FF;
    83A : FF;
    83B : FF;
    83C : FF;
    83D : FF;
    83E : FF;
    83F : FF;
    840 : FF;
    841 : FF;
    842 : FF;
    843 : FF;
    844 : FF;
    845 : FF;
    846 : FF;
    847 : FF;
    848 : FF;
    849 : FF;
    84A : FF;
    84B : FF;
    84C : FF;
    84D : FF;
    84E : FF;
    84F : FF;
    850 : FF;
    851 : FF;
    852 : FF;
    853 : FF;
    854 : FF;
    855 : FF;
    856 : FF;
    857 : FF;
    858 : FF;
    859 : FF;
    85A : FF;
    85B : FF;
    85C : FF;
    85D : FF;
    85E : FF;
    85F : FF;
    860 : FF;
    861 : FF;
    862 : FF;
    863 : FF;
    864 : FF;
    865 : FF;
    866 : FF;
    867 : FF;
    868 : FF;
    869 : FF;
    86A : FF;
    86B : FF;
    86C : FF;
    86D : FF;
    86E : FF;
    86F : FF;
    870 : FF;
    871 : FF;
    872 : FF;
    873 : FF;
    874 : FF;
    875 : FF;
    876 : FF;
    877 : FF;
    878 : FF;
    879 : FF;
    87A : FF;
    87B : FF;
    87C : FF;
    87D : FF;
    87E : FF;
    87F : FF;
    880 : FF;
    881 : FF;
    882 : FF;
    883 : FF;
    884 : FF;
    885 : FF;
    886 : FF;
    887 : FF;
    888 : FF;
    889 : FF;
    88A : FF;
    88B : FF;
    88C : FF;
    88D : FF;
    88E : FF;
    88F : FF;
    890 : FF;
    891 : FF;
    892 : FF;
    893 : FF;
    894 : FF;
    895 : FF;
    896 : FF;
    897 : FF;
    898 : FF;
    899 : FF;
    89A : FF;
    89B : FF;
    89C : FF;
    89D : FF;
    89E : FF;
    89F : FF;
    8A0 : FF;
    8A1 : FF;
    8A2 : FF;
    8A3 : FF;
    8A4 : FF;
    8A5 : FF;
    8A6 : FF;
    8A7 : FF;
    8A8 : FF;
    8A9 : FF;
    8AA : FF;
    8AB : FF;
    8AC : FF;
    8AD : FF;
    8AE : FF;
    8AF : FF;
    8B0 : FF;
    8B1 : FF;
    8B2 : FF;
    8B3 : FF;
    8B4 : FF;
    8B5 : FF;
    8B6 : FF;
    8B7 : FF;
    8B8 : FF;
    8B9 : FF;
    8BA : FF;
    8BB : FF;
    8BC : FF;
    8BD : FF;
    8BE : FF;
    8BF : FF;
    8C0 : FF;
    8C1 : FF;
    8C2 : FF;
    8C3 : FF;
    8C4 : FF;
    8C5 : FF;
    8C6 : FF;
    8C7 : FF;
    8C8 : FF;
    8C9 : FF;
    8CA : FF;
    8CB : FF;
    8CC : FF;
    8CD : FF;
    8CE : FF;
    8CF : FF;
    8D0 : FF;
    8D1 : FF;
    8D2 : FF;
    8D3 : FF;
    8D4 : FF;
    8D5 : FF;
    8D6 : FF;
    8D7 : FF;
    8D8 : FF;
    8D9 : FF;
    8DA : FF;
    8DB : FF;
    8DC : FF;
    8DD : FF;
    8DE : FF;
    8DF : FF;
    8E0 : FF;
    8E1 : FF;
    8E2 : FF;
    8E3 : FF;
    8E4 : FF;
    8E5 : FF;
    8E6 : FF;
    8E7 : FF;
    8E8 : FF;
    8E9 : FF;
    8EA : FF;
    8EB : FF;
    8EC : FF;
    8ED : FF;
    8EE : FF;
    8EF : FF;
    8F0 : FF;
    8F1 : FF;
    8F2 : FF;
    8F3 : FF;
    8F4 : FF;
    8F5 : FF;
    8F6 : FF;
    8F7 : FF;
    8F8 : FF;
    8F9 : FF;
    8FA : FF;
    8FB : FF;
    8FC : FF;
    8FD : FF;
    8FE : FF;
    8FF : FF;
    900 : FF;
    901 : FF;
    902 : FF;
    903 : FF;
    904 : FF;
    905 : FF;
    906 : FF;
    907 : FF;
    908 : FF;
    909 : FF;
    90A : FF;
    90B : FF;
    90C : FF;
    90D : FF;
    90E : FF;
    90F : FF;
    910 : FF;
    911 : FF;
    912 : FF;
    913 : FF;
    914 : FF;
    915 : FF;
    916 : FF;
    917 : FF;
    918 : FF;
    919 : FF;
    91A : FF;
    91B : FF;
    91C : FF;
    91D : FF;
    91E : FF;
    91F : FF;
    920 : FF;
    921 : FF;
    922 : FF;
    923 : FF;
    924 : FF;
    925 : FF;
    926 : FF;
    927 : FF;
    928 : FF;
    929 : FF;
    92A : FF;
    92B : FF;
    92C : FF;
    92D : FF;
    92E : FF;
    92F : FF;
    930 : FF;
    931 : FF;
    932 : FF;
    933 : FF;
    934 : FF;
    935 : FF;
    936 : FF;
    937 : FF;
    938 : FF;
    939 : FF;
    93A : FF;
    93B : FF;
    93C : FF;
    93D : FF;
    93E : FF;
    93F : FF;
    940 : FF;
    941 : FF;
    942 : FF;
    943 : FF;
    944 : FF;
    945 : FF;
    946 : FF;
    947 : FF;
    948 : FF;
    949 : FF;
    94A : FF;
    94B : FF;
    94C : FF;
    94D : FF;
    94E : FF;
    94F : FF;
    950 : FF;
    951 : FF;
    952 : FF;
    953 : FF;
    954 : FF;
    955 : FF;
    956 : FF;
    957 : FF;
    958 : FF;
    959 : FF;
    95A : FF;
    95B : FF;
    95C : FF;
    95D : FF;
    95E : FF;
    95F : FF;
    960 : FF;
    961 : FF;
    962 : FF;
    963 : FF;
    964 : FF;
    965 : FF;
    966 : FF;
    967 : FF;
    968 : FF;
    969 : FF;
    96A : FF;
    96B : FF;
    96C : FF;
    96D : FF;
    96E : FF;
    96F : FF;
    970 : FF;
    971 : FF;
    972 : FF;
    973 : FF;
    974 : FF;
    975 : FF;
    976 : FF;
    977 : FF;
    978 : FF;
    979 : FF;
    97A : FF;
    97B : FF;
    97C : FF;
    97D : FF;
    97E : FF;
    97F : FF;
    980 : FF;
    981 : FF;
    982 : FF;
    983 : FF;
    984 : FF;
    985 : FF;
    986 : FF;
    987 : FF;
    988 : FF;
    989 : FF;
    98A : FF;
    98B : FF;
    98C : FF;
    98D : FF;
    98E : FF;
    98F : FF;
    990 : FF;
    991 : FF;
    992 : FF;
    993 : FF;
    994 : FF;
    995 : FF;
    996 : FF;
    997 : FF;
    998 : FF;
    999 : FF;
    99A : FF;
    99B : FF;
    99C : FF;
    99D : FF;
    99E : FF;
    99F : FF;
    9A0 : FF;
    9A1 : FF;
    9A2 : FF;
    9A3 : FF;
    9A4 : FF;
    9A5 : FF;
    9A6 : FF;
    9A7 : FF;
    9A8 : FF;
    9A9 : FF;
    9AA : FF;
    9AB : FF;
    9AC : FF;
    9AD : FF;
    9AE : FF;
    9AF : FF;
    9B0 : FF;
    9B1 : FF;
    9B2 : FF;
    9B3 : FF;
    9B4 : FF;
    9B5 : FF;
    9B6 : FF;
    9B7 : FF;
    9B8 : FF;
    9B9 : FF;
    9BA : FF;
    9BB : FF;
    9BC : FF;
    9BD : FF;
    9BE : FF;
    9BF : FF;
    9C0 : FF;
    9C1 : FF;
    9C2 : FF;
    9C3 : FF;
    9C4 : FF;
    9C5 : FF;
    9C6 : FF;
    9C7 : FF;
    9C8 : FF;
    9C9 : FF;
    9CA : FF;
    9CB : FF;
    9CC : FF;
    9CD : FF;
    9CE : FF;
    9CF : FF;
    9D0 : FF;
    9D1 : FF;
    9D2 : FF;
    9D3 : FF;
    9D4 : FF;
    9D5 : FF;
    9D6 : FF;
    9D7 : FF;
    9D8 : FF;
    9D9 : FF;
    9DA : FF;
    9DB : FF;
    9DC : FF;
    9DD : FF;
    9DE : FF;
    9DF : FF;
    9E0 : FF;
    9E1 : FF;
    9E2 : FF;
    9E3 : FF;
    9E4 : FF;
    9E5 : FF;
    9E6 : FF;
    9E7 : FF;
    9E8 : FF;
    9E9 : FF;
    9EA : FF;
    9EB : FF;
    9EC : FF;
    9ED : FF;
    9EE : FF;
    9EF : FF;
    9F0 : FF;
    9F1 : FF;
    9F2 : FF;
    9F3 : FF;
    9F4 : FF;
    9F5 : FF;
    9F6 : FF;
    9F7 : FF;
    9F8 : FF;
    9F9 : FF;
    9FA : FF;
    9FB : FF;
    9FC : FF;
    9FD : FF;
    9FE : FF;
    9FF : FF;
    A00 : FF;
    A01 : FF;
    A02 : FF;
    A03 : FF;
    A04 : FF;
    A05 : FF;
    A06 : FF;
    A07 : FF;
    A08 : FF;
    A09 : FF;
    A0A : FF;
    A0B : FF;
    A0C : FF;
    A0D : FF;
    A0E : FF;
    A0F : FF;
    A10 : FF;
    A11 : FF;
    A12 : FF;
    A13 : FF;
    A14 : FF;
    A15 : FF;
    A16 : FF;
    A17 : FF;
    A18 : FF;
    A19 : FF;
    A1A : FF;
    A1B : FF;
    A1C : FF;
    A1D : FF;
    A1E : FF;
    A1F : FF;
    A20 : FF;
    A21 : FF;
    A22 : FF;
    A23 : FF;
    A24 : FF;
    A25 : FF;
    A26 : FF;
    A27 : FF;
    A28 : FF;
    A29 : FF;
    A2A : FF;
    A2B : FF;
    A2C : FF;
    A2D : FF;
    A2E : FF;
    A2F : FF;
    A30 : FF;
    A31 : FF;
    A32 : FF;
    A33 : FF;
    A34 : FF;
    A35 : FF;
    A36 : FF;
    A37 : FF;
    A38 : FF;
    A39 : FF;
    A3A : FF;
    A3B : FF;
    A3C : FF;
    A3D : FF;
    A3E : FF;
    A3F : FF;
    A40 : FF;
    A41 : FF;
    A42 : FF;
    A43 : FF;
    A44 : FF;
    A45 : FF;
    A46 : FF;
    A47 : FF;
    A48 : FF;
    A49 : FF;
    A4A : FF;
    A4B : FF;
    A4C : FF;
    A4D : FF;
    A4E : FF;
    A4F : FF;
    A50 : FF;
    A51 : FF;
    A52 : FF;
    A53 : FF;
    A54 : FF;
    A55 : FF;
    A56 : FF;
    A57 : FF;
    A58 : FF;
    A59 : FF;
    A5A : FF;
    A5B : FF;
    A5C : FF;
    A5D : FF;
    A5E : FF;
    A5F : FF;
    A60 : FF;
    A61 : FF;
    A62 : FF;
    A63 : FF;
    A64 : FF;
    A65 : FF;
    A66 : FF;
    A67 : FF;
    A68 : FF;
    A69 : FF;
    A6A : FF;
    A6B : FF;
    A6C : FF;
    A6D : FF;
    A6E : FF;
    A6F : FF;
    A70 : FF;
    A71 : FF;
    A72 : FF;
    A73 : FF;
    A74 : FF;
    A75 : FF;
    A76 : FF;
    A77 : FF;
    A78 : FF;
    A79 : FF;
    A7A : FF;
    A7B : FF;
    A7C : FF;
    A7D : FF;
    A7E : FF;
    A7F : FF;
    A80 : FF;
    A81 : FF;
    A82 : FF;
    A83 : FF;
    A84 : FF;
    A85 : FF;
    A86 : FF;
    A87 : FF;
    A88 : FF;
    A89 : FF;
    A8A : FF;
    A8B : FF;
    A8C : FF;
    A8D : FF;
    A8E : FF;
    A8F : FF;
    A90 : FF;
    A91 : FF;
    A92 : FF;
    A93 : FF;
    A94 : FF;
    A95 : FF;
    A96 : FF;
    A97 : FF;
    A98 : FF;
    A99 : FF;
    A9A : FF;
    A9B : FF;
    A9C : FF;
    A9D : FF;
    A9E : FF;
    A9F : FF;
    AA0 : FF;
    AA1 : FF;
    AA2 : FF;
    AA3 : FF;
    AA4 : FF;
    AA5 : FF;
    AA6 : FF;
    AA7 : FF;
    AA8 : FF;
    AA9 : FF;
    AAA : FF;
    AAB : FF;
    AAC : FF;
    AAD : FF;
    AAE : FF;
    AAF : FF;
    AB0 : FF;
    AB1 : FF;
    AB2 : FF;
    AB3 : FF;
    AB4 : FF;
    AB5 : FF;
    AB6 : FF;
    AB7 : FF;
    AB8 : FF;
    AB9 : FF;
    ABA : FF;
    ABB : FF;
    ABC : FF;
    ABD : FF;
    ABE : FF;
    ABF : FF;
    AC0 : FF;
    AC1 : FF;
    AC2 : FF;
    AC3 : FF;
    AC4 : FF;
    AC5 : FF;
    AC6 : FF;
    AC7 : FF;
    AC8 : FF;
    AC9 : FF;
    ACA : FF;
    ACB : FF;
    ACC : FF;
    ACD : FF;
    ACE : FF;
    ACF : FF;
    AD0 : FF;
    AD1 : FF;
    AD2 : FF;
    AD3 : FF;
    AD4 : FF;
    AD5 : FF;
    AD6 : FF;
    AD7 : FF;
    AD8 : FF;
    AD9 : FF;
    ADA : FF;
    ADB : FF;
    ADC : FF;
    ADD : FF;
    ADE : FF;
    ADF : FF;
    AE0 : FF;
    AE1 : FF;
    AE2 : FF;
    AE3 : FF;
    AE4 : FF;
    AE5 : FF;
    AE6 : FF;
    AE7 : FF;
    AE8 : FF;
    AE9 : FF;
    AEA : FF;
    AEB : FF;
    AEC : FF;
    AED : FF;
    AEE : FF;
    AEF : FF;
    AF0 : FF;
    AF1 : FF;
    AF2 : FF;
    AF3 : FF;
    AF4 : FF;
    AF5 : FF;
    AF6 : FF;
    AF7 : FF;
    AF8 : FF;
    AF9 : FF;
    AFA : FF;
    AFB : FF;
    AFC : FF;
    AFD : FF;
    AFE : FF;
    AFF : FF;
    B00 : FF;
    B01 : FF;
    B02 : FF;
    B03 : FF;
    B04 : FF;
    B05 : FF;
    B06 : FF;
    B07 : FF;
    B08 : FF;
    B09 : FF;
    B0A : FF;
    B0B : FF;
    B0C : FF;
    B0D : FF;
    B0E : FF;
    B0F : FF;
    B10 : FF;
    B11 : FF;
    B12 : FF;
    B13 : FF;
    B14 : FF;
    B15 : FF;
    B16 : FF;
    B17 : FF;
    B18 : FF;
    B19 : FF;
    B1A : FF;
    B1B : FF;
    B1C : FF;
    B1D : FF;
    B1E : FF;
    B1F : FF;
    B20 : FF;
    B21 : FF;
    B22 : FF;
    B23 : FF;
    B24 : FF;
    B25 : FF;
    B26 : FF;
    B27 : FF;
    B28 : FF;
    B29 : FF;
    B2A : FF;
    B2B : FF;
    B2C : FF;
    B2D : FF;
    B2E : FF;
    B2F : FF;
    B30 : FF;
    B31 : FF;
    B32 : FF;
    B33 : FF;
    B34 : FF;
    B35 : FF;
    B36 : FF;
    B37 : FF;
    B38 : FF;
    B39 : FF;
    B3A : FF;
    B3B : FF;
    B3C : FF;
    B3D : FF;
    B3E : FF;
    B3F : FF;
    B40 : FF;
    B41 : FF;
    B42 : FF;
    B43 : FF;
    B44 : FF;
    B45 : FF;
    B46 : FF;
    B47 : FF;
    B48 : FF;
    B49 : FF;
    B4A : FF;
    B4B : FF;
    B4C : FF;
    B4D : FF;
    B4E : FF;
    B4F : FF;
    B50 : FF;
    B51 : FF;
    B52 : FF;
    B53 : FF;
    B54 : FF;
    B55 : FF;
    B56 : FF;
    B57 : FF;
    B58 : FF;
    B59 : FF;
    B5A : FF;
    B5B : FF;
    B5C : FF;
    B5D : FF;
    B5E : FF;
    B5F : FF;
    B60 : FF;
    B61 : FF;
    B62 : FF;
    B63 : FF;
    B64 : FF;
    B65 : FF;
    B66 : FF;
    B67 : FF;
    B68 : FF;
    B69 : FF;
    B6A : FF;
    B6B : FF;
    B6C : FF;
    B6D : FF;
    B6E : FF;
    B6F : FF;
    B70 : FF;
    B71 : FF;
    B72 : FF;
    B73 : FF;
    B74 : FF;
    B75 : FF;
    B76 : FF;
    B77 : FF;
    B78 : FF;
    B79 : FF;
    B7A : FF;
    B7B : FF;
    B7C : FF;
    B7D : FF;
    B7E : FF;
    B7F : FF;
    B80 : FF;
    B81 : FF;
    B82 : FF;
    B83 : FF;
    B84 : FF;
    B85 : FF;
    B86 : FF;
    B87 : FF;
    B88 : FF;
    B89 : FF;
    B8A : FF;
    B8B : FF;
    B8C : FF;
    B8D : FF;
    B8E : FF;
    B8F : FF;
    B90 : FF;
    B91 : FF;
    B92 : FF;
    B93 : FF;
    B94 : FF;
    B95 : FF;
    B96 : FF;
    B97 : FF;
    B98 : FF;
    B99 : FF;
    B9A : FF;
    B9B : FF;
    B9C : FF;
    B9D : FF;
    B9E : FF;
    B9F : FF;
    BA0 : FF;
    BA1 : FF;
    BA2 : FF;
    BA3 : FF;
    BA4 : FF;
    BA5 : FF;
    BA6 : FF;
    BA7 : FF;
    BA8 : FF;
    BA9 : FF;
    BAA : FF;
    BAB : FF;
    BAC : FF;
    BAD : FF;
    BAE : FF;
    BAF : FF;
    BB0 : FF;
    BB1 : FF;
    BB2 : FF;
    BB3 : FF;
    BB4 : FF;
    BB5 : FF;
    BB6 : FF;
    BB7 : FF;
    BB8 : FF;
    BB9 : FF;
    BBA : FF;
    BBB : FF;
    BBC : FF;
    BBD : FF;
    BBE : FF;
    BBF : FF;
    BC0 : FF;
    BC1 : FF;
    BC2 : FF;
    BC3 : FF;
    BC4 : FF;
    BC5 : FF;
    BC6 : FF;
    BC7 : FF;
    BC8 : FF;
    BC9 : FF;
    BCA : FF;
    BCB : FF;
    BCC : FF;
    BCD : FF;
    BCE : FF;
    BCF : FF;
    BD0 : FF;
    BD1 : FF;
    BD2 : FF;
    BD3 : FF;
    BD4 : FF;
    BD5 : FF;
    BD6 : FF;
    BD7 : FF;
    BD8 : FF;
    BD9 : FF;
    BDA : FF;
    BDB : FF;
    BDC : FF;
    BDD : FF;
    BDE : FF;
    BDF : FF;
    BE0 : FF;
    BE1 : FF;
    BE2 : FF;
    BE3 : FF;
    BE4 : FF;
    BE5 : FF;
    BE6 : FF;
    BE7 : FF;
    BE8 : FF;
    BE9 : FF;
    BEA : FF;
    BEB : FF;
    BEC : FF;
    BED : FF;
    BEE : FF;
    BEF : FF;
    BF0 : FF;
    BF1 : FF;
    BF2 : FF;
    BF3 : FF;
    BF4 : FF;
    BF5 : FF;
    BF6 : FF;
    BF7 : FF;
    BF8 : FF;
    BF9 : FF;
    BFA : FF;
    BFB : FF;
    BFC : FF;
    BFD : FF;
    BFE : FF;
    BFF : FF;
    C00 : FF;
    C01 : FF;
    C02 : FF;
    C03 : FF;
    C04 : FF;
    C05 : FF;
    C06 : FF;
    C07 : FF;
    C08 : FF;
    C09 : FF;
    C0A : FF;
    C0B : FF;
    C0C : FF;
    C0D : FF;
    C0E : FF;
    C0F : FF;
    C10 : FF;
    C11 : FF;
    C12 : FF;
    C13 : FF;
    C14 : FF;
    C15 : FF;
    C16 : FF;
    C17 : FF;
    C18 : FF;
    C19 : FF;
    C1A : FF;
    C1B : FF;
    C1C : FF;
    C1D : FF;
    C1E : FF;
    C1F : FF;
    C20 : FF;
    C21 : FF;
    C22 : FF;
    C23 : FF;
    C24 : FF;
    C25 : FF;
    C26 : FF;
    C27 : FF;
    C28 : FF;
    C29 : FF;
    C2A : FF;
    C2B : FF;
    C2C : FF;
    C2D : FF;
    C2E : FF;
    C2F : FF;
    C30 : FF;
    C31 : FF;
    C32 : FF;
    C33 : FF;
    C34 : FF;
    C35 : FF;
    C36 : FF;
    C37 : FF;
    C38 : FF;
    C39 : FF;
    C3A : FF;
    C3B : FF;
    C3C : FF;
    C3D : FF;
    C3E : FF;
    C3F : FF;
    C40 : FF;
    C41 : FF;
    C42 : FF;
    C43 : FF;
    C44 : FF;
    C45 : FF;
    C46 : FF;
    C47 : FF;
    C48 : FF;
    C49 : FF;
    C4A : FF;
    C4B : FF;
    C4C : FF;
    C4D : FF;
    C4E : FF;
    C4F : FF;
    C50 : FF;
    C51 : FF;
    C52 : FF;
    C53 : FF;
    C54 : FF;
    C55 : FF;
    C56 : FF;
    C57 : FF;
    C58 : FF;
    C59 : FF;
    C5A : FF;
    C5B : FF;
    C5C : FF;
    C5D : FF;
    C5E : FF;
    C5F : FF;
    C60 : FF;
    C61 : FF;
    C62 : FF;
    C63 : FF;
    C64 : FF;
    C65 : FF;
    C66 : FF;
    C67 : FF;
    C68 : FF;
    C69 : FF;
    C6A : FF;
    C6B : FF;
    C6C : FF;
    C6D : FF;
    C6E : FF;
    C6F : FF;
    C70 : FF;
    C71 : FF;
    C72 : FF;
    C73 : FF;
    C74 : FF;
    C75 : FF;
    C76 : FF;
    C77 : FF;
    C78 : FF;
    C79 : FF;
    C7A : FF;
    C7B : FF;
    C7C : FF;
    C7D : FF;
    C7E : FF;
    C7F : FF;
    C80 : FF;
    C81 : FF;
    C82 : FF;
    C83 : FF;
    C84 : FF;
    C85 : FF;
    C86 : FF;
    C87 : FF;
    C88 : FF;
    C89 : FF;
    C8A : FF;
    C8B : FF;
    C8C : FF;
    C8D : FF;
    C8E : FF;
    C8F : FF;
    C90 : FF;
    C91 : FF;
    C92 : FF;
    C93 : FF;
    C94 : FF;
    C95 : FF;
    C96 : FF;
    C97 : FF;
    C98 : FF;
    C99 : FF;
    C9A : FF;
    C9B : FF;
    C9C : FF;
    C9D : FF;
    C9E : FF;
    C9F : FF;
    CA0 : FF;
    CA1 : FF;
    CA2 : FF;
    CA3 : FF;
    CA4 : FF;
    CA5 : FF;
    CA6 : FF;
    CA7 : FF;
    CA8 : FF;
    CA9 : FF;
    CAA : FF;
    CAB : FF;
    CAC : FF;
    CAD : FF;
    CAE : FF;
    CAF : FF;
    CB0 : FF;
    CB1 : FF;
    CB2 : FF;
    CB3 : FF;
    CB4 : FF;
    CB5 : FF;
    CB6 : FF;
    CB7 : FF;
    CB8 : FF;
    CB9 : FF;
    CBA : FF;
    CBB : FF;
    CBC : FF;
    CBD : FF;
    CBE : FF;
    CBF : FF;
    CC0 : FF;
    CC1 : FF;
    CC2 : FF;
    CC3 : FF;
    CC4 : FF;
    CC5 : FF;
    CC6 : FF;
    CC7 : FF;
    CC8 : FF;
    CC9 : FF;
    CCA : FF;
    CCB : FF;
    CCC : FF;
    CCD : FF;
    CCE : FF;
    CCF : FF;
    CD0 : FF;
    CD1 : FF;
    CD2 : FF;
    CD3 : FF;
    CD4 : FF;
    CD5 : FF;
    CD6 : FF;
    CD7 : FF;
    CD8 : FF;
    CD9 : FF;
    CDA : FF;
    CDB : FF;
    CDC : FF;
    CDD : FF;
    CDE : FF;
    CDF : FF;
    CE0 : FF;
    CE1 : FF;
    CE2 : FF;
    CE3 : FF;
    CE4 : FF;
    CE5 : FF;
    CE6 : FF;
    CE7 : FF;
    CE8 : FF;
    CE9 : FF;
    CEA : FF;
    CEB : FF;
    CEC : FF;
    CED : FF;
    CEE : FF;
    CEF : FF;
    CF0 : FF;
    CF1 : FF;
    CF2 : FF;
    CF3 : FF;
    CF4 : FF;
    CF5 : FF;
    CF6 : FF;
    CF7 : FF;
    CF8 : FF;
    CF9 : FF;
    CFA : FF;
    CFB : FF;
    CFC : FF;
    CFD : FF;
    CFE : FF;
    CFF : FF;
    D00 : FF;
    D01 : FF;
    D02 : FF;
    D03 : FF;
    D04 : FF;
    D05 : FF;
    D06 : FF;
    D07 : FF;
    D08 : FF;
    D09 : FF;
    D0A : FF;
    D0B : FF;
    D0C : FF;
    D0D : FF;
    D0E : FF;
    D0F : FF;
    D10 : FF;
    D11 : FF;
    D12 : FF;
    D13 : FF;
    D14 : FF;
    D15 : FF;
    D16 : FF;
    D17 : FF;
    D18 : FF;
    D19 : FF;
    D1A : FF;
    D1B : FF;
    D1C : FF;
    D1D : FF;
    D1E : FF;
    D1F : FF;
    D20 : FF;
    D21 : FF;
    D22 : FF;
    D23 : FF;
    D24 : FF;
    D25 : FF;
    D26 : FF;
    D27 : FF;
    D28 : FF;
    D29 : FF;
    D2A : FF;
    D2B : FF;
    D2C : FF;
    D2D : FF;
    D2E : FF;
    D2F : FF;
    D30 : FF;
    D31 : FF;
    D32 : FF;
    D33 : FF;
    D34 : FF;
    D35 : FF;
    D36 : FF;
    D37 : FF;
    D38 : FF;
    D39 : FF;
    D3A : FF;
    D3B : FF;
    D3C : FF;
    D3D : FF;
    D3E : FF;
    D3F : FF;
    D40 : FF;
    D41 : FF;
    D42 : FF;
    D43 : FF;
    D44 : FF;
    D45 : FF;
    D46 : FF;
    D47 : FF;
    D48 : FF;
    D49 : FF;
    D4A : FF;
    D4B : FF;
    D4C : FF;
    D4D : FF;
    D4E : FF;
    D4F : FF;
    D50 : FF;
    D51 : FF;
    D52 : FF;
    D53 : FF;
    D54 : FF;
    D55 : FF;
    D56 : FF;
    D57 : FF;
    D58 : FF;
    D59 : FF;
    D5A : FF;
    D5B : FF;
    D5C : FF;
    D5D : FF;
    D5E : FF;
    D5F : FF;
    D60 : FF;
    D61 : FF;
    D62 : FF;
    D63 : FF;
    D64 : FF;
    D65 : FF;
    D66 : FF;
    D67 : FF;
    D68 : FF;
    D69 : FF;
    D6A : FF;
    D6B : FF;
    D6C : FF;
    D6D : FF;
    D6E : FF;
    D6F : FF;
    D70 : FF;
    D71 : FF;
    D72 : FF;
    D73 : FF;
    D74 : FF;
    D75 : FF;
    D76 : FF;
    D77 : FF;
    D78 : FF;
    D79 : FF;
    D7A : FF;
    D7B : FF;
    D7C : FF;
    D7D : FF;
    D7E : FF;
    D7F : FF;
    D80 : FF;
    D81 : FF;
    D82 : FF;
    D83 : FF;
    D84 : FF;
    D85 : FF;
    D86 : FF;
    D87 : FF;
    D88 : FF;
    D89 : FF;
    D8A : FF;
    D8B : FF;
    D8C : FF;
    D8D : FF;
    D8E : FF;
    D8F : FF;
    D90 : FF;
    D91 : FF;
    D92 : FF;
    D93 : FF;
    D94 : FF;
    D95 : FF;
    D96 : FF;
    D97 : FF;
    D98 : FF;
    D99 : FF;
    D9A : FF;
    D9B : FF;
    D9C : FF;
    D9D : FF;
    D9E : FF;
    D9F : FF;
    DA0 : FF;
    DA1 : FF;
    DA2 : FF;
    DA3 : FF;
    DA4 : FF;
    DA5 : FF;
    DA6 : FF;
    DA7 : FF;
    DA8 : FF;
    DA9 : FF;
    DAA : FF;
    DAB : FF;
    DAC : FF;
    DAD : FF;
    DAE : FF;
    DAF : FF;
    DB0 : FF;
    DB1 : FF;
    DB2 : FF;
    DB3 : FF;
    DB4 : FF;
    DB5 : FF;
    DB6 : FF;
    DB7 : FF;
    DB8 : FF;
    DB9 : FF;
    DBA : FF;
    DBB : FF;
    DBC : FF;
    DBD : FF;
    DBE : FF;
    DBF : FF;
    DC0 : FF;
    DC1 : FF;
    DC2 : FF;
    DC3 : FF;
    DC4 : FF;
    DC5 : FF;
    DC6 : FF;
    DC7 : FF;
    DC8 : FF;
    DC9 : FF;
    DCA : FF;
    DCB : FF;
    DCC : FF;
    DCD : FF;
    DCE : FF;
    DCF : FF;
    DD0 : FF;
    DD1 : FF;
    DD2 : FF;
    DD3 : FF;
    DD4 : FF;
    DD5 : FF;
    DD6 : FF;
    DD7 : FF;
    DD8 : FF;
    DD9 : FF;
    DDA : FF;
    DDB : FF;
    DDC : FF;
    DDD : FF;
    DDE : FF;
    DDF : FF;
    DE0 : FF;
    DE1 : FF;
    DE2 : FF;
    DE3 : FF;
    DE4 : FF;
    DE5 : FF;
    DE6 : FF;
    DE7 : FF;
    DE8 : FF;
    DE9 : FF;
    DEA : FF;
    DEB : FF;
    DEC : FF;
    DED : FF;
    DEE : FF;
    DEF : FF;
    DF0 : FF;
    DF1 : FF;
    DF2 : FF;
    DF3 : FF;
    DF4 : FF;
    DF5 : FF;
    DF6 : FF;
    DF7 : FF;
    DF8 : FF;
    DF9 : FF;
    DFA : FF;
    DFB : FF;
    DFC : FF;
    DFD : FF;
    DFE : FF;
    DFF : FF;
    E00 : FF;
    E01 : FF;
    E02 : FF;
    E03 : FF;
    E04 : FF;
    E05 : FF;
    E06 : FF;
    E07 : FF;
    E08 : FF;
    E09 : FF;
    E0A : FF;
    E0B : FF;
    E0C : FF;
    E0D : FF;
    E0E : FF;
    E0F : FF;
    E10 : FF;
    E11 : FF;
    E12 : FF;
    E13 : FF;
    E14 : FF;
    E15 : FF;
    E16 : FF;
    E17 : FF;
    E18 : FF;
    E19 : FF;
    E1A : FF;
    E1B : FF;
    E1C : FF;
    E1D : FF;
    E1E : FF;
    E1F : FF;
    E20 : FF;
    E21 : FF;
    E22 : FF;
    E23 : FF;
    E24 : FF;
    E25 : FF;
    E26 : FF;
    E27 : FF;
    E28 : FF;
    E29 : FF;
    E2A : FF;
    E2B : FF;
    E2C : FF;
    E2D : FF;
    E2E : FF;
    E2F : FF;
    E30 : FF;
    E31 : FF;
    E32 : FF;
    E33 : FF;
    E34 : FF;
    E35 : FF;
    E36 : FF;
    E37 : FF;
    E38 : FF;
    E39 : FF;
    E3A : FF;
    E3B : FF;
    E3C : FF;
    E3D : FF;
    E3E : FF;
    E3F : FF;
    E40 : FF;
    E41 : FF;
    E42 : FF;
    E43 : FF;
    E44 : FF;
    E45 : FF;
    E46 : FF;
    E47 : FF;
    E48 : FF;
    E49 : FF;
    E4A : FF;
    E4B : FF;
    E4C : FF;
    E4D : FF;
    E4E : FF;
    E4F : FF;
    E50 : FF;
    E51 : FF;
    E52 : FF;
    E53 : FF;
    E54 : FF;
    E55 : FF;
    E56 : FF;
    E57 : FF;
    E58 : FF;
    E59 : FF;
    E5A : FF;
    E5B : FF;
    E5C : FF;
    E5D : FF;
    E5E : FF;
    E5F : FF;
    E60 : FF;
    E61 : FF;
    E62 : FF;
    E63 : FF;
    E64 : FF;
    E65 : FF;
    E66 : FF;
    E67 : FF;
    E68 : FF;
    E69 : FF;
    E6A : FF;
    E6B : FF;
    E6C : FF;
    E6D : FF;
    E6E : FF;
    E6F : FF;
    E70 : FF;
    E71 : FF;
    E72 : FF;
    E73 : FF;
    E74 : FF;
    E75 : FF;
    E76 : FF;
    E77 : FF;
    E78 : FF;
    E79 : FF;
    E7A : FF;
    E7B : FF;
    E7C : FF;
    E7D : FF;
    E7E : FF;
    E7F : FF;
    E80 : FF;
    E81 : FF;
    E82 : FF;
    E83 : FF;
    E84 : FF;
    E85 : FF;
    E86 : FF;
    E87 : FF;
    E88 : FF;
    E89 : FF;
    E8A : FF;
    E8B : FF;
    E8C : FF;
    E8D : FF;
    E8E : FF;
    E8F : FF;
    E90 : FF;
    E91 : FF;
    E92 : FF;
    E93 : FF;
    E94 : FF;
    E95 : FF;
    E96 : FF;
    E97 : FF;
    E98 : FF;
    E99 : FF;
    E9A : FF;
    E9B : FF;
    E9C : FF;
    E9D : FF;
    E9E : FF;
    E9F : FF;
    EA0 : FF;
    EA1 : FF;
    EA2 : FF;
    EA3 : FF;
    EA4 : FF;
    EA5 : FF;
    EA6 : FF;
    EA7 : FF;
    EA8 : FF;
    EA9 : FF;
    EAA : FF;
    EAB : FF;
    EAC : FF;
    EAD : FF;
    EAE : FF;
    EAF : FF;
    EB0 : FF;
    EB1 : FF;
    EB2 : FF;
    EB3 : FF;
    EB4 : FF;
    EB5 : FF;
    EB6 : FF;
    EB7 : FF;
    EB8 : FF;
    EB9 : FF;
    EBA : FF;
    EBB : FF;
    EBC : FF;
    EBD : FF;
    EBE : FF;
    EBF : FF;
    EC0 : FF;
    EC1 : FF;
    EC2 : FF;
    EC3 : FF;
    EC4 : FF;
    EC5 : FF;
    EC6 : FF;
    EC7 : FF;
    EC8 : FF;
    EC9 : FF;
    ECA : FF;
    ECB : FF;
    ECC : FF;
    ECD : FF;
    ECE : FF;
    ECF : FF;
    ED0 : FF;
    ED1 : FF;
    ED2 : FF;
    ED3 : FF;
    ED4 : FF;
    ED5 : FF;
    ED6 : FF;
    ED7 : FF;
    ED8 : FF;
    ED9 : FF;
    EDA : FF;
    EDB : FF;
    EDC : FF;
    EDD : FF;
    EDE : FF;
    EDF : FF;
    EE0 : FF;
    EE1 : FF;
    EE2 : FF;
    EE3 : FF;
    EE4 : FF;
    EE5 : FF;
    EE6 : FF;
    EE7 : FF;
    EE8 : FF;
    EE9 : FF;
    EEA : FF;
    EEB : FF;
    EEC : FF;
    EED : FF;
    EEE : FF;
    EEF : FF;
    EF0 : FF;
    EF1 : FF;
    EF2 : FF;
    EF3 : FF;
    EF4 : FF;
    EF5 : FF;
    EF6 : FF;
    EF7 : FF;
    EF8 : FF;
    EF9 : FF;
    EFA : FF;
    EFB : FF;
    EFC : FF;
    EFD : FF;
    EFE : FF;
    EFF : FF;
    F00 : FF;
    F01 : FF;
    F02 : FF;
    F03 : FF;
    F04 : FF;
    F05 : FF;
    F06 : FF;
    F07 : FF;
    F08 : FF;
    F09 : FF;
    F0A : FF;
    F0B : FF;
    F0C : FF;
    F0D : FF;
    F0E : FF;
    F0F : FF;
    F10 : FF;
    F11 : FF;
    F12 : FF;
    F13 : FF;
    F14 : FF;
    F15 : FF;
    F16 : FF;
    F17 : FF;
    F18 : FF;
    F19 : FF;
    F1A : FF;
    F1B : FF;
    F1C : FF;
    F1D : FF;
    F1E : FF;
    F1F : FF;
    F20 : FF;
    F21 : FF;
    F22 : FF;
    F23 : FF;
    F24 : FF;
    F25 : FF;
    F26 : FF;
    F27 : FF;
    F28 : FF;
    F29 : FF;
    F2A : FF;
    F2B : FF;
    F2C : FF;
    F2D : FF;
    F2E : FF;
    F2F : FF;
    F30 : FF;
    F31 : FF;
    F32 : FF;
    F33 : FF;
    F34 : FF;
    F35 : FF;
    F36 : FF;
    F37 : FF;
    F38 : FF;
    F39 : FF;
    F3A : FF;
    F3B : FF;
    F3C : FF;
    F3D : FF;
    F3E : FF;
    F3F : FF;
    F40 : FF;
    F41 : FF;
    F42 : FF;
    F43 : FF;
    F44 : FF;
    F45 : FF;
    F46 : FF;
    F47 : FF;
    F48 : FF;
    F49 : FF;
    F4A : FF;
    F4B : FF;
    F4C : FF;
    F4D : FF;
    F4E : FF;
    F4F : FF;
    F50 : FF;
    F51 : FF;
    F52 : FF;
    F53 : FF;
    F54 : FF;
    F55 : FF;
    F56 : FF;
    F57 : FF;
    F58 : FF;
    F59 : FF;
    F5A : FF;
    F5B : FF;
    F5C : FF;
    F5D : FF;
    F5E : FF;
    F5F : FF;
    F60 : FF;
    F61 : FF;
    F62 : FF;
    F63 : FF;
    F64 : FF;
    F65 : FF;
    F66 : FF;
    F67 : FF;
    F68 : FF;
    F69 : FF;
    F6A : FF;
    F6B : FF;
    F6C : FF;
    F6D : FF;
    F6E : FF;
    F6F : FF;
    F70 : FF;
    F71 : FF;
    F72 : FF;
    F73 : FF;
    F74 : FF;
    F75 : FF;
    F76 : FF;
    F77 : FF;
    F78 : FF;
    F79 : FF;
    F7A : FF;
    F7B : FF;
    F7C : FF;
    F7D : FF;
    F7E : FF;
    F7F : FF;
    F80 : FF;
    F81 : FF;
    F82 : FF;
    F83 : FF;
    F84 : FF;
    F85 : FF;
    F86 : FF;
    F87 : FF;
    F88 : FF;
    F89 : FF;
    F8A : FF;
    F8B : FF;
    F8C : FF;
    F8D : FF;
    F8E : FF;
    F8F : FF;
    F90 : FF;
    F91 : FF;
    F92 : FF;
    F93 : FF;
    F94 : FF;
    F95 : FF;
    F96 : FF;
    F97 : FF;
    F98 : FF;
    F99 : FF;
    F9A : FF;
    F9B : FF;
    F9C : FF;
    F9D : FF;
    F9E : FF;
    F9F : FF;
    FA0 : FF;
    FA1 : FF;
    FA2 : FF;
    FA3 : FF;
    FA4 : FF;
    FA5 : FF;
    FA6 : FF;
    FA7 : FF;
    FA8 : FF;
    FA9 : FF;
    FAA : FF;
    FAB : FF;
    FAC : FF;
    FAD : FF;
    FAE : FF;
    FAF : FF;
    FB0 : FF;
    FB1 : FF;
    FB2 : FF;
    FB3 : FF;
    FB4 : FF;
    FB5 : FF;
    FB6 : FF;
    FB7 : FF;
    FB8 : FF;
    FB9 : FF;
    FBA : FF;
    FBB : FF;
    FBC : FF;
    FBD : FF;
    FBE : FF;
    FBF : FF;
    FC0 : FF;
    FC1 : FF;
    FC2 : FF;
    FC3 : FF;
    FC4 : FF;
    FC5 : FF;
    FC6 : FF;
    FC7 : FF;
    FC8 : FF;
    FC9 : FF;
    FCA : FF;
    FCB : FF;
    FCC : FF;
    FCD : FF;
    FCE : FF;
    FCF : FF;
    FD0 : FF;
    FD1 : FF;
    FD2 : FF;
    FD3 : FF;
    FD4 : FF;
    FD5 : FF;
    FD6 : FF;
    FD7 : FF;
    FD8 : FF;
    FD9 : FF;
    FDA : FF;
    FDB : FF;
    FDC : FF;
    FDD : FF;
    FDE : FF;
    FDF : FF;
    FE0 : FF;
    FE1 : FF;
    FE2 : FF;
    FE3 : FF;
    FE4 : FF;
    FE5 : FF;
    FE6 : FF;
    FE7 : FF;
    FE8 : FF;
    FE9 : FF;
    FEA : FF;
    FEB : FF;
    FEC : FF;
    FED : FF;
    FEE : FF;
    FEF : FF;
    FF0 : FF;
    FF1 : FF;
    FF2 : FF;
    FF3 : FF;
    FF4 : FF;
    FF5 : FF;
    FF6 : FF;
    FF7 : FF;
    FF8 : FF;
    FF9 : FF;
    FFA : FF;
    FFB : FF;
    FFC : FF;
    FFD : FF;
    FFE : FF;
    FFF : FF;
    1000 : FF;
    1001 : FF;
    1002 : FF;
    1003 : FF;
    1004 : FF;
    1005 : FF;
    1006 : FF;
    1007 : FF;
    1008 : FF;
    1009 : FF;
    100A : FF;
    100B : FF;
    100C : FF;
    100D : FF;
    100E : FF;
    100F : FF;
    1010 : FF;
    1011 : FF;
    1012 : FF;
    1013 : FF;
    1014 : FF;
    1015 : FF;
    1016 : FF;
    1017 : FF;
    1018 : FF;
    1019 : FF;
    101A : FF;
    101B : FF;
    101C : FF;
    101D : FF;
    101E : FF;
    101F : FF;
    1020 : FF;
    1021 : FF;
    1022 : FF;
    1023 : FF;
    1024 : FF;
    1025 : FF;
    1026 : FF;
    1027 : FF;
    1028 : FF;
    1029 : FF;
    102A : FF;
    102B : FF;
    102C : FF;
    102D : FF;
    102E : FF;
    102F : FF;
    1030 : FF;
    1031 : FF;
    1032 : FF;
    1033 : FF;
    1034 : FF;
    1035 : FF;
    1036 : FF;
    1037 : FF;
    1038 : FF;
    1039 : FF;
    103A : FF;
    103B : FF;
    103C : FF;
    103D : FF;
    103E : FF;
    103F : FF;
    1040 : FF;
    1041 : FF;
    1042 : FF;
    1043 : FF;
    1044 : FF;
    1045 : FF;
    1046 : FF;
    1047 : FF;
    1048 : FF;
    1049 : FF;
    104A : FF;
    104B : FF;
    104C : FF;
    104D : FF;
    104E : FF;
    104F : FF;
    1050 : FF;
    1051 : FF;
    1052 : FF;
    1053 : FF;
    1054 : FF;
    1055 : FF;
    1056 : FF;
    1057 : FF;
    1058 : FF;
    1059 : FF;
    105A : FF;
    105B : FF;
    105C : FF;
    105D : FF;
    105E : FF;
    105F : FF;
    1060 : FF;
    1061 : FF;
    1062 : FF;
    1063 : FF;
    1064 : FF;
    1065 : FF;
    1066 : FF;
    1067 : FF;
    1068 : FF;
    1069 : FF;
    106A : FF;
    106B : FF;
    106C : FF;
    106D : FF;
    106E : FF;
    106F : FF;
    1070 : FF;
    1071 : FF;
    1072 : FF;
    1073 : FF;
    1074 : FF;
    1075 : FF;
    1076 : FF;
    1077 : FF;
    1078 : FF;
    1079 : FF;
    107A : FF;
    107B : FF;
    107C : FF;
    107D : FF;
    107E : FF;
    107F : FF;
    1080 : FF;
    1081 : FF;
    1082 : FF;
    1083 : FF;
    1084 : FF;
    1085 : FF;
    1086 : FF;
    1087 : FF;
    1088 : FF;
    1089 : FF;
    108A : FF;
    108B : FF;
    108C : FF;
    108D : FF;
    108E : FF;
    108F : FF;
    1090 : FF;
    1091 : FF;
    1092 : FF;
    1093 : FF;
    1094 : FF;
    1095 : FF;
    1096 : FF;
    1097 : FF;
    1098 : FF;
    1099 : FF;
    109A : FF;
    109B : FF;
    109C : FF;
    109D : FF;
    109E : FF;
    109F : FF;
    10A0 : FF;
    10A1 : FF;
    10A2 : FF;
    10A3 : FF;
    10A4 : FF;
    10A5 : FF;
    10A6 : FF;
    10A7 : FF;
    10A8 : FF;
    10A9 : FF;
    10AA : FF;
    10AB : FF;
    10AC : FF;
    10AD : FF;
    10AE : FF;
    10AF : FF;
    10B0 : FF;
    10B1 : FF;
    10B2 : FF;
    10B3 : FF;
    10B4 : FF;
    10B5 : FF;
    10B6 : FF;
    10B7 : FF;
    10B8 : FF;
    10B9 : FF;
    10BA : FF;
    10BB : FF;
    10BC : FF;
    10BD : FF;
    10BE : FF;
    10BF : FF;
    10C0 : FF;
    10C1 : FF;
    10C2 : FF;
    10C3 : FF;
    10C4 : FF;
    10C5 : FF;
    10C6 : FF;
    10C7 : FF;
    10C8 : FF;
    10C9 : FF;
    10CA : FF;
    10CB : FF;
    10CC : FF;
    10CD : FF;
    10CE : FF;
    10CF : FF;
    10D0 : FF;
    10D1 : FF;
    10D2 : FF;
    10D3 : FF;
    10D4 : FF;
    10D5 : FF;
    10D6 : FF;
    10D7 : FF;
    10D8 : FF;
    10D9 : FF;
    10DA : FF;
    10DB : FF;
    10DC : FF;
    10DD : FF;
    10DE : FF;
    10DF : FF;
    10E0 : FF;
    10E1 : FF;
    10E2 : FF;
    10E3 : FF;
    10E4 : FF;
    10E5 : FF;
    10E6 : FF;
    10E7 : FF;
    10E8 : FF;
    10E9 : FF;
    10EA : FF;
    10EB : FF;
    10EC : FF;
    10ED : FF;
    10EE : FF;
    10EF : FF;
    10F0 : FF;
    10F1 : FF;
    10F2 : FF;
    10F3 : FF;
    10F4 : FF;
    10F5 : FF;
    10F6 : FF;
    10F7 : FF;
    10F8 : FF;
    10F9 : FF;
    10FA : FF;
    10FB : FF;
    10FC : FF;
    10FD : FF;
    10FE : FF;
    10FF : FF;
    1100 : FF;
    1101 : FF;
    1102 : FF;
    1103 : FF;
    1104 : FF;
    1105 : FF;
    1106 : FF;
    1107 : FF;
    1108 : FF;
    1109 : FF;
    110A : FF;
    110B : FF;
    110C : FF;
    110D : FF;
    110E : FF;
    110F : FF;
    1110 : FF;
    1111 : FF;
    1112 : FF;
    1113 : FF;
    1114 : FF;
    1115 : FF;
    1116 : FF;
    1117 : FF;
    1118 : FF;
    1119 : FF;
    111A : FF;
    111B : FF;
    111C : FF;
    111D : FF;
    111E : FF;
    111F : FF;
    1120 : FF;
    1121 : FF;
    1122 : FF;
    1123 : FF;
    1124 : FF;
    1125 : FF;
    1126 : FF;
    1127 : FF;
    1128 : FF;
    1129 : FF;
    112A : FF;
    112B : FF;
    112C : FF;
    112D : FF;
    112E : FF;
    112F : FF;
    1130 : FF;
    1131 : FF;
    1132 : FF;
    1133 : FF;
    1134 : FF;
    1135 : FF;
    1136 : FF;
    1137 : FF;
    1138 : FF;
    1139 : FF;
    113A : FF;
    113B : FF;
    113C : FF;
    113D : FF;
    113E : FF;
    113F : FF;
    1140 : FF;
    1141 : FF;
    1142 : FF;
    1143 : FF;
    1144 : FF;
    1145 : FF;
    1146 : FF;
    1147 : FF;
    1148 : FF;
    1149 : FF;
    114A : FF;
    114B : FF;
    114C : FF;
    114D : FF;
    114E : FF;
    114F : FF;
    1150 : FF;
    1151 : FF;
    1152 : FF;
    1153 : FF;
    1154 : FF;
    1155 : FF;
    1156 : FF;
    1157 : FF;
    1158 : FF;
    1159 : FF;
    115A : FF;
    115B : FF;
    115C : FF;
    115D : FF;
    115E : FF;
    115F : FF;
    1160 : FF;
    1161 : FF;
    1162 : FF;
    1163 : FF;
    1164 : FF;
    1165 : FF;
    1166 : FF;
    1167 : FF;
    1168 : FF;
    1169 : FF;
    116A : FF;
    116B : FF;
    116C : FF;
    116D : FF;
    116E : FF;
    116F : FF;
    1170 : FF;
    1171 : FF;
    1172 : FF;
    1173 : FF;
    1174 : FF;
    1175 : FF;
    1176 : FF;
    1177 : FF;
    1178 : FF;
    1179 : FF;
    117A : FF;
    117B : FF;
    117C : FF;
    117D : FF;
    117E : FF;
    117F : FF;
    1180 : FF;
    1181 : FF;
    1182 : FF;
    1183 : FF;
    1184 : FF;
    1185 : FF;
    1186 : FF;
    1187 : FF;
    1188 : FF;
    1189 : FF;
    118A : FF;
    118B : FF;
    118C : FF;
    118D : FF;
    118E : FF;
    118F : FF;
    1190 : FF;
    1191 : FF;
    1192 : FF;
    1193 : FF;
    1194 : FF;
    1195 : FF;
    1196 : FF;
    1197 : FF;
    1198 : FF;
    1199 : FF;
    119A : FF;
    119B : FF;
    119C : FF;
    119D : FF;
    119E : FF;
    119F : FF;
    11A0 : FF;
    11A1 : FF;
    11A2 : FF;
    11A3 : FF;
    11A4 : FF;
    11A5 : FF;
    11A6 : FF;
    11A7 : FF;
    11A8 : FF;
    11A9 : FF;
    11AA : FF;
    11AB : FF;
    11AC : FF;
    11AD : FF;
    11AE : FF;
    11AF : FF;
    11B0 : FF;
    11B1 : FF;
    11B2 : FF;
    11B3 : FF;
    11B4 : FF;
    11B5 : FF;
    11B6 : FF;
    11B7 : FF;
    11B8 : FF;
    11B9 : FF;
    11BA : FF;
    11BB : FF;
    11BC : FF;
    11BD : FF;
    11BE : FF;
    11BF : FF;
    11C0 : FF;
    11C1 : FF;
    11C2 : FF;
    11C3 : FF;
    11C4 : FF;
    11C5 : FF;
    11C6 : FF;
    11C7 : FF;
    11C8 : FF;
    11C9 : FF;
    11CA : FF;
    11CB : FF;
    11CC : FF;
    11CD : FF;
    11CE : FF;
    11CF : FF;
    11D0 : FF;
    11D1 : FF;
    11D2 : FF;
    11D3 : FF;
    11D4 : FF;
    11D5 : FF;
    11D6 : FF;
    11D7 : FF;
    11D8 : FF;
    11D9 : FF;
    11DA : FF;
    11DB : FF;
    11DC : FF;
    11DD : FF;
    11DE : FF;
    11DF : FF;
    11E0 : FF;
    11E1 : FF;
    11E2 : FF;
    11E3 : FF;
    11E4 : FF;
    11E5 : FF;
    11E6 : FF;
    11E7 : FF;
    11E8 : FF;
    11E9 : FF;
    11EA : FF;
    11EB : FF;
    11EC : FF;
    11ED : FF;
    11EE : FF;
    11EF : FF;
    11F0 : FF;
    11F1 : FF;
    11F2 : FF;
    11F3 : FF;
    11F4 : FF;
    11F5 : FF;
    11F6 : FF;
    11F7 : FF;
    11F8 : FF;
    11F9 : FF;
    11FA : FF;
    11FB : FF;
    11FC : FF;
    11FD : FF;
    11FE : FF;
    11FF : FF;
    1200 : FF;
    1201 : FF;
    1202 : FF;
    1203 : FF;
    1204 : FF;
    1205 : FF;
    1206 : FF;
    1207 : FF;
    1208 : FF;
    1209 : FF;
    120A : FF;
    120B : FF;
    120C : FF;
    120D : FF;
    120E : FF;
    120F : FF;
    1210 : FF;
    1211 : FF;
    1212 : FF;
    1213 : FF;
    1214 : FF;
    1215 : FF;
    1216 : FF;
    1217 : FF;
    1218 : FF;
    1219 : FF;
    121A : FF;
    121B : FF;
    121C : FF;
    121D : FF;
    121E : FF;
    121F : FF;
    1220 : FF;
    1221 : FF;
    1222 : FF;
    1223 : FF;
    1224 : FF;
    1225 : FF;
    1226 : FF;
    1227 : FF;
    1228 : FF;
    1229 : FF;
    122A : FF;
    122B : FF;
    122C : FF;
    122D : FF;
    122E : FF;
    122F : FF;
    1230 : FF;
    1231 : FF;
    1232 : FF;
    1233 : FF;
    1234 : FF;
    1235 : FF;
    1236 : FF;
    1237 : FF;
    1238 : FF;
    1239 : FF;
    123A : FF;
    123B : FF;
    123C : FF;
    123D : FF;
    123E : FF;
    123F : FF;
    1240 : FF;
    1241 : FF;
    1242 : FF;
    1243 : FF;
    1244 : FF;
    1245 : FF;
    1246 : FF;
    1247 : FF;
    1248 : FF;
    1249 : FF;
    124A : FF;
    124B : FF;
    124C : FF;
    124D : FF;
    124E : FF;
    124F : FF;
    1250 : FF;
    1251 : FF;
    1252 : FF;
    1253 : FF;
    1254 : FF;
    1255 : FF;
    1256 : FF;
    1257 : FF;
    1258 : FF;
    1259 : FF;
    125A : FF;
    125B : FF;
    125C : FF;
    125D : FF;
    125E : FF;
    125F : FF;
    1260 : FF;
    1261 : FF;
    1262 : FF;
    1263 : FF;
    1264 : FF;
    1265 : FF;
    1266 : FF;
    1267 : FF;
    1268 : FF;
    1269 : FF;
    126A : FF;
    126B : FF;
    126C : FF;
    126D : FF;
    126E : FF;
    126F : FF;
    1270 : FF;
    1271 : FF;
    1272 : FF;
    1273 : FF;
    1274 : FF;
    1275 : FF;
    1276 : FF;
    1277 : FF;
    1278 : FF;
    1279 : FF;
    127A : FF;
    127B : FF;
    127C : FF;
    127D : FF;
    127E : FF;
    127F : FF;
    1280 : FF;
    1281 : FF;
    1282 : FF;
    1283 : FF;
    1284 : FF;
    1285 : FF;
    1286 : FF;
    1287 : FF;
    1288 : FF;
    1289 : FF;
    128A : FF;
    128B : FF;
    128C : FF;
    128D : FF;
    128E : FF;
    128F : FF;
    1290 : FF;
    1291 : FF;
    1292 : FF;
    1293 : FF;
    1294 : FF;
    1295 : FF;
    1296 : FF;
    1297 : FF;
    1298 : FF;
    1299 : FF;
    129A : FF;
    129B : FF;
    129C : FF;
    129D : FF;
    129E : FF;
    129F : FF;
    12A0 : FF;
    12A1 : FF;
    12A2 : FF;
    12A3 : FF;
    12A4 : FF;
    12A5 : FF;
    12A6 : FF;
    12A7 : FF;
    12A8 : FF;
    12A9 : FF;
    12AA : FF;
    12AB : FF;
    12AC : FF;
    12AD : FF;
    12AE : FF;
    12AF : FF;
    12B0 : FF;
    12B1 : FF;
    12B2 : FF;
    12B3 : FF;
    12B4 : FF;
    12B5 : FF;
    12B6 : FF;
    12B7 : FF;
    12B8 : FF;
    12B9 : FF;
    12BA : FF;
    12BB : FF;
    12BC : FF;
    12BD : FF;
    12BE : FF;
    12BF : FF;
    12C0 : FF;
    12C1 : FF;
    12C2 : FF;
    12C3 : FF;
    12C4 : FF;
    12C5 : FF;
    12C6 : FF;
    12C7 : FF;
    12C8 : FF;
    12C9 : FF;
    12CA : FF;
    12CB : FF;
    12CC : FF;
    12CD : FF;
    12CE : FF;
    12CF : FF;
    12D0 : FF;
    12D1 : FF;
    12D2 : FF;
    12D3 : FF;
    12D4 : FF;
    12D5 : FF;
    12D6 : FF;
    12D7 : FF;
    12D8 : FF;
    12D9 : FF;
    12DA : FF;
    12DB : FF;
    12DC : FF;
    12DD : FF;
    12DE : FF;
    12DF : FF;
    12E0 : FF;
    12E1 : FF;
    12E2 : FF;
    12E3 : FF;
    12E4 : FF;
    12E5 : FF;
    12E6 : FF;
    12E7 : FF;
    12E8 : FF;
    12E9 : FF;
    12EA : FF;
    12EB : FF;
    12EC : FF;
    12ED : FF;
    12EE : FF;
    12EF : FF;
    12F0 : FF;
    12F1 : FF;
    12F2 : FF;
    12F3 : FF;
    12F4 : FF;
    12F5 : FF;
    12F6 : FF;
    12F7 : FF;
    12F8 : FF;
    12F9 : FF;
    12FA : FF;
    12FB : FF;
    12FC : FF;
    12FD : FF;
    12FE : FF;
    12FF : FF;
    1300 : FF;
    1301 : FF;
    1302 : FF;
    1303 : FF;
    1304 : FF;
    1305 : FF;
    1306 : FF;
    1307 : FF;
    1308 : FF;
    1309 : FF;
    130A : FF;
    130B : FF;
    130C : FF;
    130D : FF;
    130E : FF;
    130F : FF;
    1310 : FF;
    1311 : FF;
    1312 : FF;
    1313 : FF;
    1314 : FF;
    1315 : FF;
    1316 : FF;
    1317 : FF;
    1318 : FF;
    1319 : FF;
    131A : FF;
    131B : FF;
    131C : FF;
    131D : FF;
    131E : FF;
    131F : FF;
    1320 : FF;
    1321 : FF;
    1322 : FF;
    1323 : FF;
    1324 : FF;
    1325 : FF;
    1326 : FF;
    1327 : FF;
    1328 : FF;
    1329 : FF;
    132A : FF;
    132B : FF;
    132C : FF;
    132D : FF;
    132E : FF;
    132F : FF;
    1330 : FF;
    1331 : FF;
    1332 : FF;
    1333 : FF;
    1334 : FF;
    1335 : FF;
    1336 : FF;
    1337 : FF;
    1338 : FF;
    1339 : FF;
    133A : FF;
    133B : FF;
    133C : FF;
    133D : FF;
    133E : FF;
    133F : FF;
    1340 : FF;
    1341 : FF;
    1342 : FF;
    1343 : FF;
    1344 : FF;
    1345 : FF;
    1346 : FF;
    1347 : FF;
    1348 : FF;
    1349 : FF;
    134A : FF;
    134B : FF;
    134C : FF;
    134D : FF;
    134E : FF;
    134F : FF;
    1350 : FF;
    1351 : FF;
    1352 : FF;
    1353 : FF;
    1354 : FF;
    1355 : FF;
    1356 : FF;
    1357 : FF;
    1358 : FF;
    1359 : FF;
    135A : FF;
    135B : FF;
    135C : FF;
    135D : FF;
    135E : FF;
    135F : FF;
    1360 : FF;
    1361 : FF;
    1362 : FF;
    1363 : FF;
    1364 : FF;
    1365 : FF;
    1366 : FF;
    1367 : FF;
    1368 : FF;
    1369 : FF;
    136A : FF;
    136B : FF;
    136C : FF;
    136D : FF;
    136E : FF;
    136F : FF;
    1370 : FF;
    1371 : FF;
    1372 : FF;
    1373 : FF;
    1374 : FF;
    1375 : FF;
    1376 : FF;
    1377 : FF;
    1378 : FF;
    1379 : FF;
    137A : FF;
    137B : FF;
    137C : FF;
    137D : FF;
    137E : FF;
    137F : FF;
    1380 : FF;
    1381 : FF;
    1382 : FF;
    1383 : FF;
    1384 : FF;
    1385 : FF;
    1386 : FF;
    1387 : FF;
    1388 : FF;
    1389 : FF;
    138A : FF;
    138B : FF;
    138C : FF;
    138D : FF;
    138E : FF;
    138F : FF;
    1390 : FF;
    1391 : FF;
    1392 : FF;
    1393 : FF;
    1394 : FF;
    1395 : FF;
    1396 : FF;
    1397 : FF;
    1398 : FF;
    1399 : FF;
    139A : FF;
    139B : FF;
    139C : FF;
    139D : FF;
    139E : FF;
    139F : FF;
    13A0 : FF;
    13A1 : FF;
    13A2 : FF;
    13A3 : FF;
    13A4 : FF;
    13A5 : FF;
    13A6 : FF;
    13A7 : FF;
    13A8 : FF;
    13A9 : FF;
    13AA : FF;
    13AB : FF;
    13AC : FF;
    13AD : FF;
    13AE : FF;
    13AF : FF;
    13B0 : FF;
    13B1 : FF;
    13B2 : FF;
    13B3 : FF;
    13B4 : FF;
    13B5 : FF;
    13B6 : FF;
    13B7 : FF;
    13B8 : FF;
    13B9 : FF;
    13BA : FF;
    13BB : FF;
    13BC : FF;
    13BD : FF;
    13BE : FF;
    13BF : FF;
    13C0 : FF;
    13C1 : FF;
    13C2 : FF;
    13C3 : FF;
    13C4 : FF;
    13C5 : FF;
    13C6 : FF;
    13C7 : FF;
    13C8 : FF;
    13C9 : FF;
    13CA : FF;
    13CB : FF;
    13CC : FF;
    13CD : FF;
    13CE : FF;
    13CF : FF;
    13D0 : FF;
    13D1 : FF;
    13D2 : FF;
    13D3 : FF;
    13D4 : FF;
    13D5 : FF;
    13D6 : FF;
    13D7 : FF;
    13D8 : FF;
    13D9 : FF;
    13DA : FF;
    13DB : FF;
    13DC : FF;
    13DD : FF;
    13DE : FF;
    13DF : FF;
    13E0 : FF;
    13E1 : FF;
    13E2 : FF;
    13E3 : FF;
    13E4 : FF;
    13E5 : FF;
    13E6 : FF;
    13E7 : FF;
    13E8 : FF;
    13E9 : FF;
    13EA : FF;
    13EB : FF;
    13EC : FF;
    13ED : FF;
    13EE : FF;
    13EF : FF;
    13F0 : FF;
    13F1 : FF;
    13F2 : FF;
    13F3 : FF;
    13F4 : FF;
    13F5 : FF;
    13F6 : FF;
    13F7 : FF;
    13F8 : FF;
    13F9 : FF;
    13FA : FF;
    13FB : FF;
    13FC : FF;
    13FD : FF;
    13FE : FF;
    13FF : FF;
    1400 : FF;
    1401 : FF;
    1402 : FF;
    1403 : FF;
    1404 : FF;
    1405 : FF;
    1406 : FF;
    1407 : FF;
    1408 : FF;
    1409 : FF;
    140A : FF;
    140B : FF;
    140C : FF;
    140D : FF;
    140E : FF;
    140F : FF;
    1410 : FF;
    1411 : FF;
    1412 : FF;
    1413 : FF;
    1414 : FF;
    1415 : FF;
    1416 : FF;
    1417 : FF;
    1418 : FF;
    1419 : FF;
    141A : FF;
    141B : FF;
    141C : FF;
    141D : FF;
    141E : FF;
    141F : FF;
    1420 : FF;
    1421 : FF;
    1422 : FF;
    1423 : FF;
    1424 : FF;
    1425 : FF;
    1426 : FF;
    1427 : FF;
    1428 : FF;
    1429 : FF;
    142A : FF;
    142B : FF;
    142C : FF;
    142D : FF;
    142E : FF;
    142F : FF;
    1430 : FF;
    1431 : FF;
    1432 : FF;
    1433 : FF;
    1434 : FF;
    1435 : FF;
    1436 : FF;
    1437 : FF;
    1438 : FF;
    1439 : FF;
    143A : FF;
    143B : FF;
    143C : FF;
    143D : FF;
    143E : FF;
    143F : FF;
    1440 : FF;
    1441 : FF;
    1442 : FF;
    1443 : FF;
    1444 : FF;
    1445 : FF;
    1446 : FF;
    1447 : FF;
    1448 : FF;
    1449 : FF;
    144A : FF;
    144B : FF;
    144C : FF;
    144D : FF;
    144E : FF;
    144F : FF;
    1450 : FF;
    1451 : FF;
    1452 : FF;
    1453 : FF;
    1454 : FF;
    1455 : FF;
    1456 : FF;
    1457 : FF;
    1458 : FF;
    1459 : FF;
    145A : FF;
    145B : FF;
    145C : FF;
    145D : FF;
    145E : FF;
    145F : FF;
    1460 : FF;
    1461 : FF;
    1462 : FF;
    1463 : FF;
    1464 : FF;
    1465 : FF;
    1466 : FF;
    1467 : FF;
    1468 : FF;
    1469 : FF;
    146A : FF;
    146B : FF;
    146C : FF;
    146D : FF;
    146E : FF;
    146F : FF;
    1470 : FF;
    1471 : FF;
    1472 : FF;
    1473 : FF;
    1474 : FF;
    1475 : FF;
    1476 : FF;
    1477 : FF;
    1478 : FF;
    1479 : FF;
    147A : FF;
    147B : FF;
    147C : FF;
    147D : FF;
    147E : FF;
    147F : FF;
    1480 : FF;
    1481 : FF;
    1482 : FF;
    1483 : FF;
    1484 : FF;
    1485 : FF;
    1486 : FF;
    1487 : FF;
    1488 : FF;
    1489 : FF;
    148A : FF;
    148B : FF;
    148C : FF;
    148D : FF;
    148E : FF;
    148F : FF;
    1490 : FF;
    1491 : FF;
    1492 : FF;
    1493 : FF;
    1494 : FF;
    1495 : FF;
    1496 : FF;
    1497 : FF;
    1498 : FF;
    1499 : FF;
    149A : FF;
    149B : FF;
    149C : FF;
    149D : FF;
    149E : FF;
    149F : FF;
    14A0 : FF;
    14A1 : FF;
    14A2 : FF;
    14A3 : FF;
    14A4 : FF;
    14A5 : FF;
    14A6 : FF;
    14A7 : FF;
    14A8 : FF;
    14A9 : FF;
    14AA : FF;
    14AB : FF;
    14AC : FF;
    14AD : FF;
    14AE : FF;
    14AF : FF;
    14B0 : FF;
    14B1 : FF;
    14B2 : FF;
    14B3 : FF;
    14B4 : FF;
    14B5 : FF;
    14B6 : FF;
    14B7 : FF;
    14B8 : FF;
    14B9 : FF;
    14BA : FF;
    14BB : FF;
    14BC : FF;
    14BD : FF;
    14BE : FF;
    14BF : FF;
    14C0 : FF;
    14C1 : FF;
    14C2 : FF;
    14C3 : FF;
    14C4 : FF;
    14C5 : FF;
    14C6 : FF;
    14C7 : FF;
    14C8 : FF;
    14C9 : FF;
    14CA : FF;
    14CB : FF;
    14CC : FF;
    14CD : FF;
    14CE : FF;
    14CF : FF;
    14D0 : FF;
    14D1 : FF;
    14D2 : FF;
    14D3 : FF;
    14D4 : FF;
    14D5 : FF;
    14D6 : FF;
    14D7 : FF;
    14D8 : FF;
    14D9 : FF;
    14DA : FF;
    14DB : FF;
    14DC : FF;
    14DD : FF;
    14DE : FF;
    14DF : FF;
    14E0 : FF;
    14E1 : FF;
    14E2 : FF;
    14E3 : FF;
    14E4 : FF;
    14E5 : FF;
    14E6 : FF;
    14E7 : FF;
    14E8 : FF;
    14E9 : FF;
    14EA : FF;
    14EB : FF;
    14EC : FF;
    14ED : FF;
    14EE : FF;
    14EF : FF;
    14F0 : FF;
    14F1 : FF;
    14F2 : FF;
    14F3 : FF;
    14F4 : FF;
    14F5 : FF;
    14F6 : FF;
    14F7 : FF;
    14F8 : FF;
    14F9 : FF;
    14FA : FF;
    14FB : FF;
    14FC : FF;
    14FD : FF;
    14FE : FF;
    14FF : FF;
    1500 : FF;
    1501 : FF;
    1502 : FF;
    1503 : FF;
    1504 : FF;
    1505 : FF;
    1506 : FF;
    1507 : FF;
    1508 : FF;
    1509 : FF;
    150A : FF;
    150B : FF;
    150C : FF;
    150D : FF;
    150E : FF;
    150F : FF;
    1510 : FF;
    1511 : FF;
    1512 : FF;
    1513 : FF;
    1514 : FF;
    1515 : FF;
    1516 : FF;
    1517 : FF;
    1518 : FF;
    1519 : FF;
    151A : FF;
    151B : FF;
    151C : FF;
    151D : FF;
    151E : FF;
    151F : FF;
    1520 : FF;
    1521 : FF;
    1522 : FF;
    1523 : FF;
    1524 : FF;
    1525 : FF;
    1526 : FF;
    1527 : FF;
    1528 : FF;
    1529 : FF;
    152A : FF;
    152B : FF;
    152C : FF;
    152D : FF;
    152E : FF;
    152F : FF;
    1530 : FF;
    1531 : FF;
    1532 : FF;
    1533 : FF;
    1534 : FF;
    1535 : FF;
    1536 : FF;
    1537 : FF;
    1538 : FF;
    1539 : FF;
    153A : FF;
    153B : FF;
    153C : FF;
    153D : FF;
    153E : FF;
    153F : FF;
    1540 : FF;
    1541 : FF;
    1542 : FF;
    1543 : FF;
    1544 : FF;
    1545 : FF;
    1546 : FF;
    1547 : FF;
    1548 : FF;
    1549 : FF;
    154A : FF;
    154B : FF;
    154C : FF;
    154D : FF;
    154E : FF;
    154F : FF;
    1550 : FF;
    1551 : FF;
    1552 : FF;
    1553 : FF;
    1554 : FF;
    1555 : FF;
    1556 : FF;
    1557 : FF;
    1558 : FF;
    1559 : FF;
    155A : FF;
    155B : FF;
    155C : FF;
    155D : FF;
    155E : FF;
    155F : FF;
    1560 : FF;
    1561 : FF;
    1562 : FF;
    1563 : FF;
    1564 : FF;
    1565 : FF;
    1566 : FF;
    1567 : FF;
    1568 : FF;
    1569 : FF;
    156A : FF;
    156B : FF;
    156C : FF;
    156D : FF;
    156E : FF;
    156F : FF;
    1570 : FF;
    1571 : FF;
    1572 : FF;
    1573 : FF;
    1574 : FF;
    1575 : FF;
    1576 : FF;
    1577 : FF;
    1578 : FF;
    1579 : FF;
    157A : FF;
    157B : FF;
    157C : FF;
    157D : FF;
    157E : FF;
    157F : FF;
    1580 : FF;
    1581 : FF;
    1582 : FF;
    1583 : FF;
    1584 : FF;
    1585 : FF;
    1586 : FF;
    1587 : FF;
    1588 : FF;
    1589 : FF;
    158A : FF;
    158B : FF;
    158C : FF;
    158D : FF;
    158E : FF;
    158F : FF;
    1590 : FF;
    1591 : FF;
    1592 : FF;
    1593 : FF;
    1594 : FF;
    1595 : FF;
    1596 : FF;
    1597 : FF;
    1598 : FF;
    1599 : FF;
    159A : FF;
    159B : FF;
    159C : FF;
    159D : FF;
    159E : FF;
    159F : FF;
    15A0 : FF;
    15A1 : FF;
    15A2 : FF;
    15A3 : FF;
    15A4 : FF;
    15A5 : FF;
    15A6 : FF;
    15A7 : FF;
    15A8 : FF;
    15A9 : FF;
    15AA : FF;
    15AB : FF;
    15AC : FF;
    15AD : FF;
    15AE : FF;
    15AF : FF;
    15B0 : FF;
    15B1 : FF;
    15B2 : FF;
    15B3 : FF;
    15B4 : FF;
    15B5 : FF;
    15B6 : FF;
    15B7 : FF;
    15B8 : FF;
    15B9 : FF;
    15BA : FF;
    15BB : FF;
    15BC : FF;
    15BD : FF;
    15BE : FF;
    15BF : FF;
    15C0 : FF;
    15C1 : FF;
    15C2 : FF;
    15C3 : FF;
    15C4 : FF;
    15C5 : FF;
    15C6 : FF;
    15C7 : FF;
    15C8 : FF;
    15C9 : FF;
    15CA : FF;
    15CB : FF;
    15CC : FF;
    15CD : FF;
    15CE : FF;
    15CF : FF;
    15D0 : FF;
    15D1 : FF;
    15D2 : FF;
    15D3 : FF;
    15D4 : FF;
    15D5 : FF;
    15D6 : FF;
    15D7 : FF;
    15D8 : FF;
    15D9 : FF;
    15DA : FF;
    15DB : FF;
    15DC : FF;
    15DD : FF;
    15DE : FF;
    15DF : FF;
    15E0 : FF;
    15E1 : FF;
    15E2 : FF;
    15E3 : FF;
    15E4 : FF;
    15E5 : FF;
    15E6 : FF;
    15E7 : FF;
    15E8 : FF;
    15E9 : FF;
    15EA : FF;
    15EB : FF;
    15EC : FF;
    15ED : FF;
    15EE : FF;
    15EF : FF;
    15F0 : FF;
    15F1 : FF;
    15F2 : FF;
[...]
    31281 : FF;
    31282 : FF;
    31283 : FF;
    31284 : FF;
    31285 : FF;
    31286 : FF;
    31287 : FF;
    31288 : FF;
    31289 : FF;
    3128A : FF;
    3128B : FF;
    3128C : FF;
    3128D : FF;
    3128E : FF;
    3128F : FF;
    31290 : FF;
    31291 : FF;
    31292 : FF;
    31293 : FF;
    31294 : FF;
    31295 : FF;
    31296 : FF;
    31297 : FF;
    31298 : FF;
    31299 : FF;
    3129A : FF;
    3129B : FF;
    3129C : FF;
    3129D : FF;
    3129E : FF;
    3129F : FF;
    312A0 : FF;
    312A1 : FF;
    312A2 : FF;
    312A3 : FF;
    312A4 : FF;
    312A5 : FF;
    312A6 : FF;
    312A7 : FF;
    312A8 : FF;
    312A9 : FF;
    312AA : FF;
    312AB : FF;
    312AC : FF;
    312AD : FF;
    312AE : FF;
    312AF : FF;
    312B0 : FF;
    312B1 : FF;
    312B2 : FF;
    312B3 : FF;
    312B4 : FF;
    312B5 : FF;
    312B6 : FF;
    312B7 : FF;
    312B8 : FF;
    312B9 : FF;
    312BA : FF;
    312BB : FF;
    312BC : FF;
    312BD : FF;
    312BE : FF;
    312BF : FF;
    312C0 : FF;
    312C1 : FF;
    312C2 : FF;
    312C3 : FF;
    312C4 : FF;
    312C5 : FF;
    312C6 : FF;
    312C7 : FF;
    312C8 : FF;
    312C9 : FF;
    312CA : FF;
    312CB : FF;
    312CC : FF;
    312CD : FF;
    312CE : FF;
    312CF : FF;
    312D0 : FF;
    312D1 : FF;
    312D2 : FF;
    312D3 : FF;
    312D4 : FF;
    312D5 : FF;
    312D6 : FF;
    312D7 : FF;
    312D8 : FF;
    312D9 : FF;
    312DA : FF;
    312DB : FF;
    312DC : FF;
    312DD : FF;
    312DE : FF;
    312DF : FF;
    312E0 : FF;
    312E1 : FF;
    312E2 : FF;
    312E3 : FF;
    312E4 : FF;
    312E5 : FF;
    312E6 : FF;
    312E7 : FF;
    312E8 : FF;
    312E9 : FF;
    312EA : FF;
    312EB : FF;
    312EC : FF;
    312ED : FF;
    312EE : FF;
    312EF : FF;
    312F0 : FF;
    312F1 : FF;
    312F2 : FF;
    312F3 : FF;
    312F4 : FF;
    312F5 : FF;
    312F6 : FF;
    312F7 : FF;
    312F8 : FF;
    312F9 : FF;
    312FA : FF;
    312FB : FF;
    312FC : FF;
    312FD : FF;
    312FE : FF;
    312FF : FF;
    31300 : FF;
    31301 : FF;
    31302 : FF;
    31303 : FF;
    31304 : FF;
    31305 : FF;
    31306 : FF;
    31307 : FF;
    31308 : FF;
    31309 : FF;
    3130A : FF;
    3130B : FF;
    3130C : FF;
    3130D : FF;
    3130E : FF;
    3130F : FF;
    31310 : FF;
    31311 : FF;
    31312 : FF;
    31313 : FF;
    31314 : FF;
    31315 : FF;
    31316 : FF;
    31317 : FF;
    31318 : FF;
    31319 : FF;
    3131A : FF;
    3131B : FF;
    3131C : FF;
    3131D : FF;
    3131E : FF;
    3131F : FF;
    31320 : FF;
    31321 : FF;
    31322 : FF;
    31323 : FF;
    31324 : FF;
    31325 : FF;
    31326 : FF;
    31327 : FF;
    31328 : FF;
    31329 : FF;
    3132A : FF;
    3132B : FF;
    3132C : FF;
    3132D : FF;
    3132E : FF;
    3132F : FF;
    31330 : FF;
    31331 : FF;
    31332 : FF;
    31333 : FF;
    31334 : FF;
    31335 : FF;
    31336 : FF;
    31337 : FF;
    31338 : FF;
    31339 : FF;
    3133A : FF;
    3133B : FF;
    3133C : FF;
    3133D : FF;
    3133E : FF;
    3133F : FF;
    31340 : FF;
    31341 : FF;
    31342 : FF;
    31343 : FF;
    31344 : FF;
    31345 : FF;
    31346 : FF;
    31347 : FF;
    31348 : FF;
    31349 : FF;
    3134A : FF;
    3134B : FF;
    3134C : FF;
    3134D : FF;
    3134E : FF;
    3134F : FF;
    31350 : FF;
    31351 : FF;
    31352 : FF;
    31353 : FF;
    31354 : FF;
    31355 : FF;
    31356 : FF;
    31357 : FF;
    31358 : FF;
    31359 : FF;
    3135A : FF;
    3135B : FF;
    3135C : FF;
    3135D : FF;
    3135E : FF;
    3135F : FF;
    31360 : FF;
    31361 : FF;
    31362 : FF;
    31363 : FF;
    31364 : FF;
    31365 : FF;
    31366 : FF;
    31367 : FF;
    31368 : FF;
    31369 : FF;
    3136A : FF;
    3136B : FF;
    3136C : FF;
    3136D : FF;
    3136E : FF;
    3136F : FF;
    31370 : FF;
    31371 : FF;
    31372 : FF;
    31373 : FF;
    31374 : FF;
    31375 : FF;
    31376 : FF;
    31377 : FF;
    31378 : FF;
    31379 : FF;
    3137A : FF;
    3137B : FF;
    3137C : FF;
    3137D : FF;
    3137E : FF;
    3137F : FF;
    31380 : FF;
    31381 : FF;
    31382 : FF;
    31383 : FF;
    31384 : FF;
    31385 : FF;
    31386 : FF;
    31387 : FF;
    31388 : FF;
    31389 : FF;
    3138A : FF;
    3138B : FF;
    3138C : FF;
    3138D : FF;
    3138E : FF;
    3138F : FF;
    31390 : FF;
    31391 : FF;
    31392 : FF;
    31393 : FF;
    31394 : FF;
    31395 : FF;
    31396 : FF;
    31397 : FF;
    31398 : FF;
    31399 : FF;
    3139A : FF;
    3139B : FF;
    3139C : FF;
    3139D : FF;
    3139E : FF;
    3139F : FF;
    313A0 : FF;
    313A1 : FF;
    313A2 : FF;
    313A3 : FF;
    313A4 : FF;
    313A5 : FF;
    313A6 : FF;
    313A7 : FF;
    313A8 : FF;
    313A9 : FF;
    313AA : FF;
    313AB : FF;
    313AC : FF;
    313AD : FF;
    313AE : FF;
    313AF : FF;
    313B0 : FF;
    313B1 : FF;
    313B2 : FF;
    313B3 : FF;
    313B4 : FF;
    313B5 : FF;
    313B6 : FF;
    313B7 : FF;
    313B8 : FF;
    313B9 : FF;
    313BA : FF;
    313BB : FF;
    313BC : FF;
    313BD : FF;
    313BE : FF;
    313BF : FF;
    313C0 : FF;
    313C1 : FF;
    313C2 : FF;
    313C3 : FF;
    313C4 : FF;
    313C5 : FF;
    313C6 : FF;
    313C7 : FF;
    313C8 : FF;
    313C9 : FF;
    313CA : FF;
    313CB : FF;
    313CC : FF;
    313CD : FF;
    313CE : FF;
    313CF : FF;
    313D0 : FF;
    313D1 : FF;
    313D2 : FF;
    313D3 : FF;
    313D4 : FF;
    313D5 : FF;
    313D6 : FF;
    313D7 : FF;
    313D8 : FF;
    313D9 : FF;
    313DA : FF;
    313DB : FF;
    313DC : FF;
    313DD : FF;
    313DE : FF;
    313DF : FF;
    313E0 : FF;
    313E1 : FF;
    313E2 : FF;
    313E3 : FF;
    313E4 : FF;
    313E5 : FF;
    313E6 : FF;
    313E7 : FF;
    313E8 : FF;
    313E9 : FF;
    313EA : FF;
    313EB : FF;
    313EC : FF;
    313ED : FF;
    313EE : FF;
    313EF : FF;
    313F0 : FF;
    313F1 : FF;
    313F2 : FF;
    313F3 : FF;
    313F4 : FF;
    313F5 : FF;
    313F6 : FF;
    313F7 : FF;
    313F8 : FF;
    313F9 : FF;
    313FA : FF;
    313FB : FF;
    313FC : FF;
    313FD : FF;
    313FE : FF;
    313FF : FF;
    31400 : FF;
    31401 : FF;
    31402 : FF;
    31403 : FF;
    31404 : FF;
    31405 : FF;
    31406 : FF;
    31407 : FF;
    31408 : FF;
    31409 : FF;
    3140A : FF;
    3140B : FF;
    3140C : FF;
    3140D : FF;
    3140E : FF;
    3140F : FF;
    31410 : FF;
    31411 : FF;
    31412 : FF;
    31413 : FF;
    31414 : FF;
    31415 : FF;
    31416 : FF;
    31417 : FF;
    31418 : FF;
    31419 : FF;
    3141A : FF;
    3141B : FF;
    3141C : FF;
    3141D : FF;
    3141E : FF;
    3141F : FF;
    31420 : FF;
    31421 : FF;
    31422 : FF;
    31423 : FF;
    31424 : FF;
    31425 : FF;
    31426 : FF;
    31427 : FF;
    31428 : FF;
    31429 : FF;
    3142A : FF;
    3142B : FF;
    3142C : FF;
    3142D : FF;
    3142E : FF;
    3142F : FF;
    31430 : FF;
    31431 : FF;
    31432 : FF;
    31433 : FF;
    31434 : FF;
    31435 : FF;
    31436 : FF;
    31437 : FF;
    31438 : FF;
    31439 : FF;
    3143A : FF;
    3143B : FF;
    3143C : FF;
    3143D : FF;
    3143E : FF;
    3143F : FF;
    31440 : FF;
    31441 : FF;
    31442 : FF;
    31443 : FF;
    31444 : FF;
    31445 : FF;
    31446 : FF;
    31447 : FF;
    31448 : FF;
    31449 : FF;
    3144A : FF;
    3144B : FF;
    3144C : FF;
    3144D : FF;
    3144E : FF;
    3144F : FF;
    31450 : FF;
    31451 : FF;
    31452 : FF;
    31453 : FF;
    31454 : FF;
    31455 : FF;
    31456 : FF;
    31457 : FF;
    31458 : FF;
    31459 : FF;
    3145A : FF;
    3145B : FF;
    3145C : FF;
    3145D : FF;
    3145E : FF;
    3145F : FF;
    31460 : FF;
    31461 : FF;
    31462 : FF;
    31463 : FF;
    31464 : FF;
    31465 : FF;
    31466 : FF;
    31467 : FF;
    31468 : FF;
    31469 : FF;
    3146A : FF;
    3146B : FF;
    3146C : FF;
    3146D : FF;
    3146E : FF;
    3146F : FF;
    31470 : FF;
    31471 : FF;
    31472 : FF;
    31473 : FF;
    31474 : FF;
    31475 : FF;
    31476 : FF;
    31477 : FF;
    31478 : FF;
    31479 : FF;
    3147A : FF;
    3147B : FF;
    3147C : FF;
    3147D : FF;
    3147E : FF;
    3147F : FF;
    31480 : FF;
    31481 : FF;
    31482 : FF;
    31483 : FF;
    31484 : FF;
    31485 : FF;
    31486 : FF;
    31487 : FF;
    31488 : FF;
    31489 : FF;
    3148A : FF;
    3148B : FF;
    3148C : FF;
    3148D : FF;
    3148E : FF;
    3148F : FF;
    31490 : FF;
    31491 : FF;
    31492 : FF;
    31493 : FF;
    31494 : FF;
    31495 : FF;
    31496 : FF;
    31497 : FF;
    31498 : FF;
    31499 : FF;
    3149A : FF;
    3149B : FF;
    3149C : FF;
    3149D : FF;
    3149E : FF;
    3149F : FF;
    314A0 : FF;
    314A1 : FF;
    314A2 : FF;
    314A3 : FF;
    314A4 : FF;
    314A5 : FF;
    314A6 : FF;
    314A7 : FF;
    314A8 : FF;
    314A9 : FF;
    314AA : FF;
    314AB : FF;
    314AC : FF;
    314AD : FF;
    314AE : FF;
    314AF : FF;
    314B0 : FF;
    314B1 : FF;
    314B2 : FF;
    314B3 : FF;
    314B4 : FF;
    314B5 : FF;
    314B6 : FF;
    314B7 : FF;
    314B8 : FF;
    314B9 : FF;
    314BA : FF;
    314BB : FF;
    314BC : FF;
    314BD : FF;
    314BE : FF;
    314BF : FF;
    314C0 : FF;
    314C1 : FF;
    314C2 : FF;
    314C3 : FF;
    314C4 : FF;
    314C5 : FF;
    314C6 : FF;
    314C7 : FF;
    314C8 : FF;
    314C9 : FF;
    314CA : FF;
    314CB : FF;
    314CC : FF;
    314CD : FF;
    314CE : FF;
    314CF : FF;
    314D0 : FF;
    314D1 : FF;
    314D2 : FF;
    314D3 : FF;
    314D4 : FF;
    314D5 : FF;
    314D6 : FF;
    314D7 : FF;
    314D8 : FF;
    314D9 : FF;
    314DA : FF;
    314DB : FF;
    314DC : FF;
    314DD : FF;
    314DE : FF;
    314DF : FF;
    314E0 : FF;
    314E1 : FF;
    314E2 : FF;
    314E3 : FF;
    314E4 : FF;
    314E5 : FF;
    314E6 : FF;
    314E7 : FF;
    314E8 : FF;
    314E9 : FF;
    314EA : FF;
    314EB : FF;
    314EC : FF;
    314ED : FF;
    314EE : FF;
    314EF : FF;
    314F0 : FF;
    314F1 : FF;
    314F2 : FF;
    314F3 : FF;
    314F4 : FF;
    314F5 : FF;
    314F6 : FF;
    314F7 : FF;
    314F8 : FF;
    314F9 : FF;
    314FA : FF;
    314FB : FF;
    314FC : FF;
    314FD : FF;
    314FE : FF;
    314FF : FF;
    31500 : FF;
    31501 : FF;
    31502 : FF;
    31503 : FF;
    31504 : FF;
    31505 : FF;
    31506 : FF;
    31507 : FF;
    31508 : FF;
    31509 : FF;
    3150A : FF;
    3150B : FF;
    3150C : FF;
    3150D : FF;
    3150E : FF;
    3150F : FF;
    31510 : FF;
    31511 : FF;
    31512 : FF;
    31513 : FF;
    31514 : FF;
    31515 : FF;
    31516 : FF;
    31517 : FF;
    31518 : FF;
    31519 : FF;
    3151A : FF;
    3151B : FF;
    3151C : FF;
    3151D : FF;
    3151E : FF;
    3151F : FF;
    31520 : FF;
    31521 : FF;
    31522 : FF;
    31523 : FF;
    31524 : FF;
    31525 : FF;
    31526 : FF;
    31527 : FF;
    31528 : FF;
    31529 : FF;
    3152A : FF;
    3152B : FF;
    3152C : FF;
    3152D : FF;
    3152E : FF;
    3152F : FF;
    31530 : FF;
    31531 : FF;
    31532 : FF;
    31533 : FF;
    31534 : FF;
    31535 : FF;
    31536 : FF;
    31537 : FF;
    31538 : FF;
    31539 : FF;
    3153A : FF;
    3153B : FF;
    3153C : FF;
    3153D : FF;
    3153E : FF;
    3153F : FF;
    31540 : FF;
    31541 : FF;
    31542 : FF;
    31543 : FF;
    31544 : FF;
    31545 : FF;
    31546 : FF;
    31547 : FF;
    31548 : FF;
    31549 : FF;
    3154A : FF;
    3154B : FF;
    3154C : FF;
    3154D : FF;
    3154E : FF;
    3154F : FF;
    31550 : FF;
    31551 : FF;
    31552 : FF;
    31553 : FF;
    31554 : FF;
    31555 : FF;
    31556 : FF;
    31557 : FF;
    31558 : FF;
    31559 : FF;
    3155A : FF;
    3155B : FF;
    3155C : FF;
    3155D : FF;
    3155E : FF;
    3155F : FF;
    31560 : FF;
    31561 : FF;
    31562 : FF;
    31563 : FF;
    31564 : FF;
    31565 : FF;
    31566 : FF;
    31567 : FF;
    31568 : FF;
    31569 : FF;
    3156A : FF;
    3156B : FF;
    3156C : FF;
    3156D : FF;
    3156E : FF;
    3156F : FF;
    31570 : FF;
    31571 : FF;
    31572 : FF;
    31573 : FF;
    31574 : FF;
    31575 : FF;
    31576 : FF;
    31577 : FF;
    31578 : FF;
    31579 : FF;
    3157A : FF;
    3157B : FF;
    3157C : FF;
    3157D : FF;
    3157E : FF;
    3157F : FF;
    31580 : FF;
    31581 : FF;
    31582 : FF;
    31583 : FF;
    31584 : FF;
    31585 : FF;
    31586 : FF;
    31587 : FF;
    31588 : FF;
    31589 : FF;
    3158A : FF;
    3158B : FF;
    3158C : FF;
    3158D : FF;
    3158E : FF;
    3158F : FF;
    31590 : FF;
    31591 : FF;
    31592 : FF;
    31593 : FF;
    31594 : FF;
    31595 : FF;
    31596 : FF;
    31597 : FF;
    31598 : FF;
    31599 : FF;
    3159A : FF;
    3159B : FF;
    3159C : FF;
    3159D : FF;
    3159E : FF;
    3159F : FF;
    315A0 : FF;
    315A1 : FF;
    315A2 : FF;
    315A3 : FF;
    315A4 : FF;
    315A5 : FF;
    315A6 : FF;
    315A7 : FF;
    315A8 : FF;
    315A9 : FF;
    315AA : FF;
    315AB : FF;
    315AC : FF;
    315AD : FF;
    315AE : FF;
    315AF : FF;
    315B0 : FF;
    315B1 : FF;
    315B2 : FF;
    315B3 : FF;
    315B4 : FF;
    315B5 : FF;
    315B6 : FF;
    315B7 : FF;
    315B8 : FF;
    315B9 : FF;
    315BA : FF;
    315BB : FF;
    315BC : FF;
    315BD : FF;
    315BE : FF;
    315BF : FF;
    315C0 : FF;
    315C1 : FF;
    315C2 : FF;
    315C3 : FF;
    315C4 : FF;
    315C5 : FF;
    315C6 : FF;
    315C7 : FF;
    315C8 : FF;
    315C9 : FF;
    315CA : FF;
    315CB : FF;
    315CC : FF;
    315CD : FF;
    315CE : FF;
    315CF : FF;
    315D0 : FF;
    315D1 : FF;
    315D2 : FF;
    315D3 : FF;
    315D4 : FF;
    315D5 : FF;
    315D6 : FF;
    315D7 : FF;
    315D8 : FF;
    315D9 : FF;
    315DA : FF;
    315DB : FF;
    315DC : FF;
    315DD : FF;
    315DE : FF;
    315DF : FF;
    315E0 : FF;
    315E1 : FF;
    315E2 : FF;
    315E3 : FF;
    315E4 : FF;
    315E5 : FF;
    315E6 : FF;
    315E7 : FF;
    315E8 : FF;
    315E9 : FF;
    315EA : FF;
    315EB : FF;
    315EC : FF;
    315ED : FF;
    315EE : FF;
    315EF : FF;
    315F0 : FF;
    315F1 : FF;
    315F2 : FF;
    315F3 : FF;
    315F4 : FF;
    315F5 : FF;
    315F6 : FF;
    315F7 : FF;
    315F8 : FF;
    315F9 : FF;
    315FA : FF;
    315FB : FF;
    315FC : FF;
    315FD : FF;
    315FE : FF;
    315FF : FF;
    31600 : FF;
    31601 : FF;
    31602 : FF;
    31603 : FF;
    31604 : FF;
    31605 : FF;
    31606 : FF;
    31607 : FF;
    31608 : FF;
    31609 : FF;
    3160A : FF;
    3160B : FF;
    3160C : FF;
    3160D : FF;
    3160E : FF;
    3160F : FF;
    31610 : FF;
    31611 : FF;
    31612 : FF;
    31613 : FF;
    31614 : FF;
    31615 : FF;
    31616 : FF;
    31617 : FF;
    31618 : FF;
    31619 : FF;
    3161A : FF;
    3161B : FF;
    3161C : FF;
    3161D : FF;
    3161E : FF;
    3161F : FF;
    31620 : FF;
    31621 : FF;
    31622 : FF;
    31623 : FF;
    31624 : FF;
    31625 : FF;
    31626 : FF;
    31627 : FF;
    31628 : FF;
    31629 : FF;
    3162A : FF;
    3162B : FF;
    3162C : FF;
    3162D : FF;
    3162E : FF;
    3162F : FF;
    31630 : FF;
    31631 : FF;
    31632 : FF;
    31633 : FF;
    31634 : FF;
    31635 : FF;
    31636 : FF;
    31637 : FF;
    31638 : FF;
    31639 : FF;
    3163A : FF;
    3163B : FF;
    3163C : FF;
    3163D : FF;
    3163E : FF;
    3163F : FF;
    31640 : FF;
    31641 : FF;
    31642 : FF;
    31643 : FF;
    31644 : FF;
    31645 : FF;
    31646 : FF;
    31647 : FF;
    31648 : FF;
    31649 : FF;
    3164A : FF;
    3164B : FF;
    3164C : FF;
    3164D : FF;
    3164E : FF;
    3164F : FF;
    31650 : FF;
    31651 : FF;
    31652 : FF;
    31653 : FF;
    31654 : FF;
    31655 : FF;
    31656 : FF;
    31657 : FF;
    31658 : FF;
    31659 : FF;
    3165A : FF;
    3165B : FF;
    3165C : FF;
    3165D : FF;
    3165E : FF;
    3165F : FF;
    31660 : FF;
    31661 : FF;
    31662 : FF;
    31663 : FF;
    31664 : FF;
    31665 : FF;
    31666 : FF;
    31667 : FF;
    31668 : FF;
    31669 : FF;
    3166A : FF;
    3166B : FF;
    3166C : FF;
    3166D : FF;
    3166E : FF;
    3166F : FF;
    31670 : FF;
    31671 : FF;
    31672 : FF;
    31673 : FF;
    31674 : FF;
    31675 : FF;
    31676 : FF;
    31677 : FF;
    31678 : FF;
    31679 : FF;
    3167A : FF;
    3167B : FF;
    3167C : FF;
    3167D : FF;
    3167E : FF;
    3167F : FF;
    31680 : FF;
    31681 : FF;
    31682 : FF;
    31683 : FF;
    31684 : FF;
    31685 : FF;
    31686 : FF;
    31687 : FF;
    31688 : FF;
    31689 : FF;
    3168A : FF;
    3168B : FF;
    3168C : FF;
    3168D : FF;
    3168E : FF;
    3168F : FF;
    31690 : FF;
    31691 : FF;
    31692 : FF;
    31693 : FF;
    31694 : FF;
    31695 : FF;
    31696 : FF;
    31697 : FF;
    31698 : FF;
    31699 : FF;
    3169A : FF;
    3169B : FF;
    3169C : FF;
    3169D : FF;
    3169E : FF;
    3169F : FF;
    316A0 : FF;
    316A1 : FF;
    316A2 : FF;
    316A3 : FF;
    316A4 : FF;
    316A5 : FF;
    316A6 : FF;
    316A7 : FF;
    316A8 : FF;
    316A9 : FF;
    316AA : FF;
    316AB : FF;
    316AC : FF;
    316AD : FF;
    316AE : FF;
    316AF : FF;
    316B0 : FF;
    316B1 : FF;
    316B2 : FF;
    316B3 : FF;
    316B4 : FF;
    316B5 : FF;
    316B6 : FF;
    316B7 : FF;
    316B8 : FF;
    316B9 : FF;
    316BA : FF;
    316BB : FF;
    316BC : FF;
    316BD : FF;
    316BE : FF;
    316BF : FF;
    316C0 : FF;
    316C1 : FF;
    316C2 : FF;
    316C3 : FF;
    316C4 : FF;
    316C5 : FF;
    316C6 : FF;
    316C7 : FF;
    316C8 : FF;
    316C9 : FF;
    316CA : FF;
    316CB : FF;
    316CC : FF;
    316CD : FF;
    316CE : FF;
    316CF : FF;
    316D0 : FF;
    316D1 : FF;
    316D2 : FF;
    316D3 : FF;
    316D4 : FF;
    316D5 : FF;
    316D6 : FF;
    316D7 : FF;
    316D8 : FF;
    316D9 : FF;
    316DA : FF;
    316DB : FF;
    316DC : FF;
    316DD : FF;
    316DE : FF;
    316DF : FF;
    316E0 : FF;
    316E1 : FF;
    316E2 : FF;
    316E3 : FF;
    316E4 : FF;
    316E5 : FF;
    316E6 : FF;
    316E7 : FF;
    316E8 : FF;
    316E9 : FF;
    316EA : FF;
    316EB : FF;
    316EC : FF;
    316ED : FF;
    316EE : FF;
    316EF : FF;
    316F0 : FF;
    316F1 : FF;
    316F2 : FF;
    316F3 : FF;
    316F4 : FF;
    316F5 : FF;
    316F6 : FF;
    316F7 : FF;
    316F8 : FF;
    316F9 : FF;
    316FA : FF;
    316FB : FF;
    316FC : FF;
    316FD : FF;
    316FE : FF;
    316FF : FF;
    31700 : FF;
    31701 : FF;
    31702 : FF;
    31703 : FF;
    31704 : FF;
    31705 : FF;
    31706 : FF;
    31707 : FF;
    31708 : 0;
    31709 : 0;
    3170A : 0;
    3170B : 0;
    3170C : 0;
    3170D : 0;
    3170E : 0;
    3170F : 0;
    31710 : 0;
    31711 : 0;
    31712 : 0;
    31713 : 0;
    31714 : 0;
    31715 : 0;
    31716 : 0;
    31717 : 0;
    31718 : 0;
    31719 : 0;
    3171A : 0;
    3171B : 0;
    3171C : 0;
    3171D : 0;
    3171E : 0;
    3171F : 0;
    31720 : 0;
    31721 : 0;
    31722 : 0;
    31723 : 0;
    31724 : 0;
    31725 : 0;
    31726 : 0;
    31727 : 0;
    31728 : 0;
    31729 : 0;
    3172A : 0;
    3172B : 0;
    3172C : 0;
    3172D : 0;
    3172E : 0;
    3172F : 0;
    31730 : 0;
    31731 : 0;
    31732 : 0;
    31733 : 0;
    31734 : 0;
    31735 : 0;
    31736 : 0;
    31737 : 0;
    31738 : 0;
    31739 : 0;
    3173A : 0;
    3173B : 0;
    3173C : 0;
    3173D : 0;
    3173E : 0;
    3173F : 0;
    31740 : 0;
    31741 : 0;
    31742 : 0;
    31743 : 0;
    31744 : 0;
    31745 : 0;
    31746 : 0;
    31747 : 0;
    31748 : 0;
    31749 : 0;
    3174A : 0;
    3174B : 0;
    3174C : 0;
    3174D : 0;
    3174E : 0;
    3174F : 0;
    31750 : 0;
    31751 : 0;
    31752 : 0;
    31753 : 0;
    31754 : 0;
    31755 : 0;
    31756 : 0;
    31757 : 0;
    31758 : 0;
    31759 : 0;
    3175A : 0;
    3175B : 0;
    3175C : 0;
    3175D : 0;
    3175E : 0;
    3175F : 0;
    31760 : 0;
    31761 : 0;
    31762 : 0;
    31763 : 0;
    31764 : 0;
    31765 : 0;
    31766 : 0;
    31767 : 0;
END;
