WIDTH=32;
DEPTH=125200;

ADDRESS_RADIX=HEX;
DATA_RADIX=HEX;

CONTENT BEGIN
    0 : 1C2;
    1 : 1C2;
    2 : 0;
    3 : 0;
    4 : FFFFFFFF;
    5 : FFFFFFFF;
    6 : FFFFFFFF;
    7 : FFFFFFFF;
    8 : FFFFFFFF;
    9 : FFFFFFFF;
    A : FFFFFFFF;
    B : FFFFFFFF;
    C : FFFFFFFF;
    D : FFFFFFFF;
    E : FFFFFFFF;
    F : FFFFFFFF;
    10 : FFFFFFFF;
    11 : FFFFFFFF;
    12 : FFFFFFFF;
    13 : FFFFFFFF;
    14 : FFFFFFFF;
    15 : FFFFFFFF;
    16 : FFFFFFFF;
    17 : FFFFFFFF;
    18 : FFFFFFFF;
    19 : FFFFFFFF;
    1A : FFFFFFFF;
    1B : FFFFFFFF;
    1C : FFFFFFFF;
    1D : FFFFFFFF;
    1E : FFFFFFFF;
    1F : FFFFFFFF;
    20 : FFFFFFFF;
    21 : FFFFFFFF;
    22 : FFFFFFFF;
    23 : FFFFFFFF;
    24 : FFFFFFFF;
    25 : FFFFFFFF;
    26 : FFFFFFFF;
    27 : FFFFFFFF;
    28 : FFFFFFFF;
    29 : FFFFFFFF;
    2A : FFFFFFFF;
    2B : FFFFFFFF;
    2C : FFFFFFFF;
    2D : FFFFFFFF;
    2E : FFFFFFFF;
    2F : FFFFFFFF;
    30 : FFFFFFFF;
    31 : FFFFFFFF;
    32 : FFFFFFFF;
    33 : FFFFFFFF;
    34 : FFFFFFFF;
    35 : FFFFFFFF;
    36 : FFFFFFFF;
    37 : FFFFFFFF;
    38 : FFFFFFFF;
    39 : FFFFFFFF;
    3A : FFFFFFFF;
    3B : FFFFFFFF;
    3C : FFFFFFFF;
    3D : FFFFFFFF;
    3E : FFFFFFFF;
    3F : FFFFFFFF;
    40 : FFFFFFFF;
    41 : FFFFFFFF;
    42 : FFFFFFFF;
    43 : FFFFFFFF;
    44 : FFFFFFFF;
    45 : FFFFFFFF;
    46 : FFFFFFFF;
    47 : FFFFFFFF;
    48 : FFFFFFFF;
    49 : FFFFFFFF;
    4A : FFFFFFFF;
    4B : FFFFFFFF;
    4C : FFFFFFFF;
    4D : FFFFFFFF;
    4E : FFFFFFFF;
    4F : FFFFFFFF;
    50 : FFFFFFFF;
    51 : FFFFFFFF;
    52 : FFFFFFFF;
    53 : FFFFFFFF;
    54 : FFFFFFFF;
    55 : FFFFFFFF;
    56 : FFFFFFFF;
    57 : FFFFFFFF;
    58 : FFFFFFFF;
    59 : FFFFFFFF;
    5A : FFFFFFFF;
    5B : FFFFFFFF;
    5C : FFFFFFFF;
    5D : FFFFFFFF;
    5E : FFFFFFFF;
    5F : FFFFFFFF;
    60 : FFFFFFFF;
    61 : FFFFFFFF;
    62 : FFFFFFFF;
    63 : FFFFFFFF;
    64 : FFFFFFFF;
    65 : FFFFFFFF;
    66 : FFFFFFFF;
    67 : FFFFFFFF;
    68 : FFFFFFFF;
    69 : FFFFFFFF;
    6A : FFFFFFFF;
    6B : FFFFFFFF;
    6C : FFFFFFFF;
    6D : FFFFFFFF;
    6E : FFFFFFFF;
    6F : FFFFFFFF;
    70 : FFFFFFFF;
    71 : FFFFFFFF;
    72 : FFFFFFFF;
    73 : FFFFFFFF;
    74 : FFFFFFFF;
    75 : FFFFFFFF;
    76 : FFFFFFFF;
    77 : FFFFFFFF;
    78 : FFFFFFFF;
    79 : FFFFFFFF;
    7A : FFFFFFFF;
    7B : FFFFFFFF;
    7C : FFFFFFFF;
    7D : FFFFFFFF;
    7E : FFFFFFFF;
    7F : FFFFFFFF;
    80 : FFFFFFFF;
    81 : FFFFFFFF;
    82 : FFFFFFFF;
    83 : FFFFFFFF;
    84 : FFFFFFFF;
    85 : FFFFFFFF;
    86 : FFFFFFFF;
    87 : FFFFFFFF;
    88 : FFFFFFFF;
    89 : FFFFFFFF;
    8A : FFFFFFFF;
    8B : FFFFFFFF;
    8C : FFFFFFFF;
    8D : FFFFFFFF;
    8E : FFFFFFFF;
    8F : FFFFFFFF;
    90 : FFFFFFFF;
    91 : FFFFFFFF;
    92 : FFFFFFFF;
    93 : FFFFFFFF;
    94 : FFFFFFFF;
    95 : FFFFFFFF;
    96 : FFFFFFFF;
    97 : FFFFFFFF;
    98 : FFFFFFFF;
    99 : FFFFFFFF;
    9A : FFFFFFFF;
    9B : FFFFFFFF;
    9C : FFFFFFFF;
    9D : FFFFFFFF;
    9E : FFFFFFFF;
    9F : FFFFFFFF;
    A0 : FFFFFFFF;
    A1 : FFFFFFFF;
    A2 : FFFFFFFF;
    A3 : FFFFFFFF;
    A4 : FFFFFFFF;
    A5 : FFFFFFFF;
    A6 : FFFFFFFF;
    A7 : FFFFFFFF;
    A8 : FFFFFFFF;
    A9 : FFFFFFFF;
    AA : FFFFFFFF;
    AB : FFFFFFFF;
    AC : FFFFFFFF;
    AD : FFFFFFFF;
    AE : FFFFFFFF;
    AF : FFFFFFFF;
    B0 : FFFFFFFF;
    B1 : FFFFFFFF;
    B2 : FFFFFFFF;
    B3 : FFFFFFFF;
    B4 : FFFFFFFF;
    B5 : FFFFFFFF;
    B6 : FFFFFFFF;
    B7 : FFFFFFFF;
    B8 : FFFFFFFF;
    B9 : FFFFFFFF;
    BA : FFFFFFFF;
    BB : FFFFFFFF;
    BC : FFFFFFFF;
    BD : FFFFFFFF;
    BE : FFFFFFFF;
    BF : FFFFFFFF;
    C0 : FFFFFFFF;
    C1 : FFFFFFFF;
    C2 : FFFFFFFF;
    C3 : FFFFFFFF;
    C4 : FFFFFFFF;
    C5 : FFFFFFFF;
    C6 : FFFFFFFF;
    C7 : FFFFFFFF;
    C8 : FFFFFFFF;
    C9 : FFFFFFFF;
    CA : FFFFFFFF;
    CB : FFFFFFFF;
    CC : FFFFFFFF;
    CD : FFFFFFFF;
    CE : FFFFFFFF;
    CF : FFFFFFFF;
    D0 : FFFFFFFF;
    D1 : FFFFFFFF;
    D2 : FFFFFFFF;
    D3 : FFFFFFFF;
    D4 : FFFFFFFF;
    D5 : FFFFFFFF;
    D6 : FFFFFFFF;
    D7 : FFFFFFFF;
    D8 : FFFFFFFF;
    D9 : FFFFFFFF;
    DA : FFFFFFFF;
    DB : FFFFFFFF;
    DC : FFFFFFFF;
    DD : FFFFFFFF;
    DE : FFFFFFFF;
    DF : FFFFFFFF;
    E0 : FFFFFFFF;
    E1 : FFFFFFFF;
    E2 : FFFFFFFF;
    E3 : FFFFFFFF;
    E4 : FFFFFFFF;
    E5 : FFFFFFFF;
    E6 : FFFFFFFF;
    E7 : FFFFFFFF;
    E8 : FFFFFFFF;
    E9 : FFFFFFFF;
    EA : FFFFFFFF;
    EB : FFFFFFFF;
    EC : FFFFFFFF;
    ED : FFFFFFFF;
    EE : FFFFFFFF;
    EF : FFFFFFFF;
    F0 : FFFFFFFF;
    F1 : FFFFFFFF;
    F2 : FFFFFFFF;
    F3 : FFFFFFFF;
    F4 : FFFFFFFF;
    F5 : FFFFFFFF;
    F6 : FFFFFFFF;
    F7 : FFFFFFFF;
    F8 : FFFFFFFF;
    F9 : FFFFFFFF;
    FA : FFFFFFFF;
    FB : FFFFFFFF;
    FC : FFFFFFFF;
    FD : FFFFFFFF;
    FE : FFFFFFFF;
    FF : FFFFFFFF;
    100 : FFFFFFFF;
    101 : FFFFFFFF;
    102 : FFFFFFFF;
    103 : FFFFFFFF;
    104 : FFFFFFFF;
    105 : FFFFFFFF;
    106 : FFFFFFFF;
    107 : FFFFFFFF;
    108 : FFFFFFFF;
    109 : FFFFFFFF;
    10A : FFFFFFFF;
    10B : FFFFFFFF;
    10C : FFFFFFFF;
    10D : FFFFFFFF;
    10E : FFFFFFFF;
    10F : FFFFFFFF;
    110 : FFFFFFFF;
    111 : FFFFFFFF;
    112 : FFFFFFFF;
    113 : FFFFFFFF;
    114 : FFFFFFFF;
    115 : FFFFFFFF;
    116 : FFFFFFFF;
    117 : FFFFFFFF;
    118 : FFFFFFFF;
    119 : FFFFFFFF;
    11A : FFFFFFFF;
    11B : FFFFFFFF;
    11C : FFFFFFFF;
    11D : FFFFFFFF;
    11E : FFFFFFFF;
    11F : FFFFFFFF;
    120 : FFFFFFFF;
    121 : FFFFFFFF;
    122 : FFFFFFFF;
    123 : FFFFFFFF;
    124 : FFFFFFFF;
    125 : FFFFFFFF;
    126 : FFFFFFFF;
    127 : FFFFFFFF;
    128 : FFFFFFFF;
    129 : FFFFFFFF;
    12A : FFFFFFFF;
    12B : FFFFFFFF;
    12C : FFFFFFFF;
    12D : FFFFFFFF;
    12E : FFFFFFFF;
    12F : FFFFFFFF;
    130 : FFFFFFFF;
    131 : FFFFFFFF;
    132 : FFFFFFFF;
    133 : FFFFFFFF;
    134 : FFFFFFFF;
    135 : FFFFFFFF;
    136 : FFFFFFFF;
    137 : FFFFFFFF;
    138 : FFFFFFFF;
    139 : FFFFFFFF;
    13A : FFFFFFFF;
    13B : FFFFFFFF;
    13C : FFFFFFFF;
    13D : FFFFFFFF;
    13E : FFFFFFFF;
    13F : FFFFFFFF;
    140 : FFFFFFFF;
    141 : FFFFFFFF;
    142 : FFFFFFFF;
    143 : FFFFFFFF;
    144 : FFFFFFFF;
    145 : FFFFFFFF;
    146 : FFFFFFFF;
    147 : FFFFFFFF;
    148 : FFFFFFFF;
    149 : FFFFFFFF;
    14A : FFFFFFFF;
    14B : FFFFFFFF;
    14C : FFFFFFFF;
    14D : FFFFFFFF;
    14E : FFFFFFFF;
    14F : FFFFFFFF;
    150 : FFFFFFFF;
    151 : FFFFFFFF;
    152 : FFFFFFFF;
    153 : FFFFFFFF;
    154 : FFFFFFFF;
    155 : FFFFFFFF;
    156 : FFFFFFFF;
    157 : FFFFFFFF;
    158 : FFFFFFFF;
    159 : FFFFFFFF;
    15A : FFFFFFFF;
    15B : FFFFFFFF;
    15C : FFFFFFFF;
    15D : FFFFFFFF;
    15E : FFFFFFFF;
    15F : FFFFFFFF;
    160 : FFFFFFFF;
    161 : FFFFFFFF;
    162 : FFFFFFFF;
    163 : FFFFFFFF;
    164 : FFFFFFFF;
    165 : FFFFFFFF;
    166 : FFFFFFFF;
    167 : FFFFFFFF;
    168 : FFFFFFFF;
    169 : FFFFFFFF;
    16A : FFFFFFFF;
    16B : FFFFFFFF;
    16C : FFFFFFFF;
    16D : FFFFFFFF;
    16E : FFFFFFFF;
    16F : FFFFFFFF;
    170 : FFFFFFFF;
    171 : FFFFFFFF;
    172 : FFFFFFFF;
    173 : FFFFFFFF;
    174 : FFFFFFFF;
    175 : FFFFFFFF;
    176 : FFFFFFFF;
    177 : FFFFFFFF;
    178 : FFFFFFFF;
    179 : FFFFFFFF;
    17A : FFFFFFFF;
    17B : FFFFFFFF;
    17C : FFFFFFFF;
    17D : FFFFFFFF;
    17E : FFFFFFFF;
    17F : FFFFFFFF;
    180 : FFFFFFFF;
    181 : FFFFFFFF;
    182 : FFFFFFFF;
    183 : FFFFFFFF;
    184 : FFFFFFFF;
    185 : FFFFFFFF;
    186 : FFFFFFFF;
    187 : FFFFFFFF;
    188 : FFFFFFFF;
    189 : FFFFFFFF;
    18A : FFFFFFFF;
    18B : FFFFFFFF;
    18C : FFFFFFFF;
    18D : FFFFFFFF;
    18E : FFFFFFFF;
    18F : FFFFFFFF;
    190 : FFFFFFFF;
    191 : FFFFFFFF;
    192 : FFFFFFFF;
    193 : FFFFFFFF;
    194 : FFFFFFFF;
    195 : FFFFFFFF;
    196 : FFFFFFFF;
    197 : FFFFFFFF;
    198 : FFFFFFFF;
    199 : FFFFFFFF;
    19A : FFFFFFFF;
    19B : FFFFFFFF;
    19C : FFFFFFFF;
    19D : FFFFFFFF;
    19E : FFFFFFFF;
    19F : FFFFFFFF;
    1A0 : FFFFFFFF;
    1A1 : FFFFFFFF;
    1A2 : FFFFFFFF;
    1A3 : FFFFFFFF;
    1A4 : FFFFFFFF;
    1A5 : FFFFFFFF;
    1A6 : FFFFFFFF;
    1A7 : FFFFFFFF;
    1A8 : FFFFFFFF;
    1A9 : FFFFFFFF;
    1AA : FFFFFFFF;
    1AB : FFFFFFFF;
    1AC : FFFFFFFF;
    1AD : FFFFFFFF;
    1AE : FFFFFFFF;
    1AF : FFFFFFFF;
    1B0 : FFFFFFFF;
    1B1 : FFFFFFFF;
    1B2 : FFFFFFFF;
    1B3 : FFFFFFFF;
    1B4 : FFFFFFFF;
    1B5 : FFFFFFFF;
    1B6 : FFFFFFFF;
    1B7 : FFFFFFFF;
    1B8 : FFFFFFFF;
    1B9 : FFFFFFFF;
    1BA : FFFFFFFF;
    1BB : FFFFFFFF;
    1BC : FFFFFFFF;
    1BD : FFFFFFFF;
    1BE : FFFFFFFF;
    1BF : FFFFFFFF;
    1C0 : FFFFFFFF;
    1C1 : FFFFFFFF;
    1C2 : FFFFFFFF;
    1C3 : FFFFFFFF;
    1C4 : FFFFFFFF;
    1C5 : FFFFFFFF;
    1C6 : FFFFFFFF;
    1C7 : FFFFFFFF;
    1C8 : FFFFFFFF;
    1C9 : FFFFFFFF;
    1CA : FFFFFFFF;
    1CB : FFFFFFFF;
    1CC : FFFFFFFF;
    1CD : FFFFFFFF;
    1CE : FFFFFFFF;
    1CF : FFFFFFFF;
    1D0 : FFFFFFFF;
    1D1 : FFFFFFFF;
    1D2 : FFFFFFFF;
    1D3 : FFFFFFFF;
    1D4 : FFFFFFFF;
    1D5 : FFFFFFFF;
    1D6 : FFFFFFFF;
    1D7 : FFFFFFFF;
    1D8 : FFFFFFFF;
    1D9 : FFFFFFFF;
    1DA : FFFFFFFF;
    1DB : FFFFFFFF;
    1DC : FFFFFFFF;
    1DD : FFFFFFFF;
    1DE : FFFFFFFF;
    1DF : FFFFFFFF;
    1E0 : FFFFFFFF;
    1E1 : FFFFFFFF;
    1E2 : FFFFFFFF;
    1E3 : FFFFFFFF;
    1E4 : FFFFFFFF;
    1E5 : FFFFFFFF;
    1E6 : FFFFFFFF;
    1E7 : FFFFFFFF;
    1E8 : FFFFFFFF;
    1E9 : FFFFFFFF;
    1EA : FFFFFFFF;
    1EB : FFFFFFFF;
    1EC : FFFFFFFF;
    1ED : FFFFFFFF;
    1EE : FFFFFFFF;
    1EF : FFFFFFFF;
    1F0 : FFFFFFFF;
    1F1 : FFFFFFFF;
    1F2 : FFFFFFFF;
    1F3 : FFFFFFFF;
    1F4 : FFFFFFFF;
    1F5 : FFFFFFFF;
    1F6 : FFFFFFFF;
    1F7 : FFFFFFFF;
    1F8 : FFFFFFFF;
    1F9 : FFFFFFFF;
    1FA : FFFFFFFF;
    1FB : FFFFFFFF;
    1FC : FFFFFFFF;
    1FD : FFFFFFFF;
    1FE : FFFFFFFF;
    1FF : FFFFFFFF;
    200 : FFFFFFFF;
    201 : FFFFFFFF;
    202 : FFFFFFFF;
    203 : FFFFFFFF;
    204 : FFFFFFFF;
    205 : FFFFFFFF;
    206 : FFFFFFFF;
    207 : FFFFFFFF;
    208 : FFFFFFFF;
    209 : FFFFFFFF;
    20A : FFFFFFFF;
    20B : FFFFFFFF;
    20C : FFFFFFFF;
    20D : FFFFFFFF;
    20E : FFFFFFFF;
    20F : FFFFFFFF;
    210 : FFFFFFFF;
    211 : FFFFFFFF;
    212 : FFFFFFFF;
    213 : FFFFFFFF;
    214 : FFFFFFFF;
    215 : FFFFFFFF;
    216 : FFFFFFFF;
    217 : FFFFFFFF;
    218 : FFFFFFFF;
    219 : FFFFFFFF;
    21A : FFFFFFFF;
    21B : FFFFFFFF;
    21C : FFFFFFFF;
    21D : FFFFFFFF;
    21E : FFFFFFFF;
    21F : FFFFFFFF;
    220 : FFFFFFFF;
    221 : FFFFFFFF;
    222 : FFFFFFFF;
    223 : FFFFFFFF;
    224 : FFFFFFFF;
    225 : FFFFFFFF;
    226 : FFFFFFFF;
    227 : FFFFFFFF;
    228 : FFFFFFFF;
    229 : FFFFFFFF;
    22A : FFFFFFFF;
    22B : FFFFFFFF;
    22C : FFFFFFFF;
    22D : FFFFFFFF;
    22E : FFFFFFFF;
    22F : FFFFFFFF;
    230 : FFFFFFFF;
    231 : FFFFFFFF;
    232 : FFFFFFFF;
    233 : FFFFFFFF;
    234 : FFFFFFFF;
    235 : FFFFFFFF;
    236 : FFFFFFFF;
    237 : FFFFFFFF;
    238 : FFFFFFFF;
    239 : FFFFFFFF;
    23A : FFFFFFFF;
    23B : FFFFFFFF;
    23C : FFFFFFFF;
    23D : FFFFFFFF;
    23E : FFFFFFFF;
    23F : FFFFFFFF;
    240 : FFFFFFFF;
    241 : FFFFFFFF;
    242 : FFFFFFFF;
    243 : FFFFFFFF;
    244 : FFFFFFFF;
    245 : FFFFFFFF;
    246 : FFFFFFFF;
    247 : FFFFFFFF;
    248 : FFFFFFFF;
    249 : FFFFFFFF;
    24A : FFFFFFFF;
    24B : FFFFFFFF;
    24C : FFFFFFFF;
    24D : FFFFFFFF;
    24E : FFFFFFFF;
    24F : FFFFFFFF;
    250 : FFFFFFFF;
    251 : FFFFFFFF;
    252 : FFFFFFFF;
    253 : FFFFFFFF;
    254 : FFFFFFFF;
    255 : FFFFFFFF;
    256 : FFFFFFFF;
    257 : FFFFFFFF;
    258 : FFFFFFFF;
    259 : FFFFFFFF;
    25A : FFFFFFFF;
    25B : FFFFFFFF;
    25C : FFFFFFFF;
    25D : FFFFFFFF;
    25E : FFFFFFFF;
    25F : FFFFFFFF;
    260 : FFFFFFFF;
    261 : FFFFFFFF;
    262 : FFFFFFFF;
    263 : FFFFFFFF;
    264 : FFFFFFFF;
    265 : FFFFFFFF;
    266 : FFFFFFFF;
    267 : FFFFFFFF;
    268 : FFFFFFFF;
    269 : FFFFFFFF;
    26A : FFFFFFFF;
    26B : FFFFFFFF;
    26C : FFFFFFFF;
    26D : FFFFFFFF;
    26E : FFFFFFFF;
    26F : FFFFFFFF;
    270 : FFFFFFFF;
    271 : FFFFFFFF;
    272 : FFFFFFFF;
    273 : FFFFFFFF;
    274 : FFFFFFFF;
    275 : FFFFFFFF;
    276 : FFFFFFFF;
    277 : FFFFFFFF;
    278 : FFFFFFFF;
    279 : FFFFFFFF;
    27A : FFFFFFFF;
    27B : FFFFFFFF;
    27C : FFFFFFFF;
    27D : FFFFFFFF;
    27E : FFFFFFFF;
    27F : FFFFFFFF;
    280 : FFFFFFFF;
    281 : FFFFFFFF;
    282 : FFFFFFFF;
    283 : FFFFFFFF;
    284 : FFFFFFFF;
    285 : FFFFFFFF;
    286 : FFFFFFFF;
    287 : FFFFFFFF;
    288 : FFFFFFFF;
    289 : FFFFFFFF;
    28A : FFFFFFFF;
    28B : FFFFFFFF;
    28C : FFFFFFFF;
    28D : FFFFFFFF;
    28E : FFFFFFFF;
    28F : FFFFFFFF;
    290 : FFFFFFFF;
    291 : FFFFFFFF;
    292 : FFFFFFFF;
    293 : FFFFFFFF;
    294 : FFFFFFFF;
    295 : FFFFFFFF;
    296 : FFFFFFFF;
    297 : FFFFFFFF;
    298 : FFFFFFFF;
    299 : FFFFFFFF;
    29A : FFFFFFFF;
    29B : FFFFFFFF;
    29C : FFFFFFFF;
    29D : FFFFFFFF;
    29E : FFFFFFFF;
    29F : FFFFFFFF;
    2A0 : FFFFFFFF;
    2A1 : FFFFFFFF;
    2A2 : FFFFFFFF;
    2A3 : FFFFFFFF;
    2A4 : FFFFFFFF;
    2A5 : FFFFFFFF;
    2A6 : FFFFFFFF;
    2A7 : FFFFFFFF;
    2A8 : FFFFFFFF;
    2A9 : FFFFFFFF;
    2AA : FFFFFFFF;
    2AB : FFFFFFFF;
    2AC : FFFFFFFF;
    2AD : FFFFFFFF;
    2AE : FFFFFFFF;
    2AF : FFFFFFFF;
    2B0 : FFFFFFFF;
    2B1 : FFFFFFFF;
    2B2 : FFFFFFFF;
    2B3 : FFFFFFFF;
    2B4 : FFFFFFFF;
    2B5 : FFFFFFFF;
    2B6 : FFFFFFFF;
    2B7 : FFFFFFFF;
    2B8 : FFFFFFFF;
    2B9 : FFFFFFFF;
    2BA : FFFFFFFF;
    2BB : FFFFFFFF;
    2BC : FFFFFFFF;
    2BD : FFFFFFFF;
    2BE : FFFFFFFF;
    2BF : FFFFFFFF;
    2C0 : FFFFFFFF;
    2C1 : FFFFFFFF;
    2C2 : FFFFFFFF;
    2C3 : FFFFFFFF;
    2C4 : FFFFFFFF;
    2C5 : FFFFFFFF;
    2C6 : FFFFFFFF;
    2C7 : FFFFFFFF;
    2C8 : FFFFFFFF;
    2C9 : FFFFFFFF;
    2CA : FFFFFFFF;
    2CB : FFFFFFFF;
    2CC : FFFFFFFF;
    2CD : FFFFFFFF;
    2CE : FFFFFFFF;
    2CF : FFFFFFFF;
    2D0 : FFFFFFFF;
    2D1 : FFFFFFFF;
    2D2 : FFFFFFFF;
    2D3 : FFFFFFFF;
    2D4 : FFFFFFFF;
    2D5 : FFFFFFFF;
    2D6 : FFFFFFFF;
    2D7 : FFFFFFFF;
    2D8 : FFFFFFFF;
    2D9 : FFFFFFFF;
    2DA : FFFFFFFF;
    2DB : FFFFFFFF;
    2DC : FFFFFFFF;
    2DD : FFFFFFFF;
    2DE : FFFFFFFF;
    2DF : FFFFFFFF;
    2E0 : FFFFFFFF;
    2E1 : FFFFFFFF;
    2E2 : FFFFFFFF;
    2E3 : FFFFFFFF;
    2E4 : FFFFFFFF;
    2E5 : FFFFFFFF;
    2E6 : FFFFFFFF;
    2E7 : FFFFFFFF;
    2E8 : FFFFFFFF;
    2E9 : FFFFFFFF;
    2EA : FFFFFFFF;
    2EB : FFFFFFFF;
    2EC : FFFFFFFF;
    2ED : FFFFFFFF;
    2EE : FFFFFFFF;
    2EF : FFFFFFFF;
    2F0 : FFFFFFFF;
    2F1 : FFFFFFFF;
    2F2 : FFFFFFFF;
    2F3 : FFFFFFFF;
    2F4 : FFFFFFFF;
    2F5 : FFFFFFFF;
    2F6 : FFFFFFFF;
    2F7 : FFFFFFFF;
    2F8 : FFFFFFFF;
    2F9 : FFFFFFFF;
    2FA : FFFFFFFF;
    2FB : FFFFFFFF;
    2FC : FFFFFFFF;
    2FD : FFFFFFFF;
    2FE : FFFFFFFF;
    2FF : FFFFFFFF;
    300 : FFFFFFFF;
    301 : FFFFFFFF;
    302 : FFFFFFFF;
    303 : FFFFFFFF;
    304 : FFFFFFFF;
    305 : FFFFFFFF;
    306 : FFFFFFFF;
    307 : FFFFFFFF;
    308 : FFFFFFFF;
    309 : FFFFFFFF;
    30A : FFFFFFFF;
    30B : FFFFFFFF;
    30C : FFFFFFFF;
    30D : FFFFFFFF;
    30E : FFFFFFFF;
    30F : FFFFFFFF;
    310 : FFFFFFFF;
    311 : FFFFFFFF;
    312 : FFFFFFFF;
    313 : FFFFFFFF;
    314 : FFFFFFFF;
    315 : FFFFFFFF;
    316 : FFFFFFFF;
    317 : FFFFFFFF;
    318 : FFFFFFFF;
    319 : FFFFFFFF;
    31A : FFFFFFFF;
    31B : FFFFFFFF;
    31C : FFFFFFFF;
    31D : FFFFFFFF;
    31E : FFFFFFFF;
    31F : FFFFFFFF;
    320 : FFFFFFFF;
    321 : FFFFFFFF;
    322 : FFFFFFFF;
    323 : FFFFFFFF;
    324 : FFFFFFFF;
    325 : FFFFFFFF;
    326 : FFFFFFFF;
    327 : FFFFFFFF;
    328 : FFFFFFFF;
    329 : FFFFFFFF;
    32A : FFFFFFFF;
    32B : FFFFFFFF;
    32C : FFFFFFFF;
    32D : FFFFFFFF;
    32E : FFFFFFFF;
    32F : FFFFFFFF;
    330 : FFFFFFFF;
    331 : FFFFFFFF;
    332 : FFFFFFFF;
    333 : FFFFFFFF;
    334 : FFFFFFFF;
    335 : FFFFFFFF;
    336 : FFFFFFFF;
    337 : FFFFFFFF;
    338 : FFFFFFFF;
    339 : FFFFFFFF;
    33A : FFFFFFFF;
    33B : FFFFFFFF;
    33C : FFFFFFFF;
    33D : FFFFFFFF;
    33E : FFFFFFFF;
    33F : FFFFFFFF;
    340 : FFFFFFFF;
    341 : FFFFFFFF;
    342 : FFFFFFFF;
    343 : FFFFFFFF;
    344 : FFFFFFFF;
    345 : FFFFFFFF;
    346 : FFFFFFFF;
    347 : FFFFFFFF;
    348 : FFFFFFFF;
    349 : FFFFFFFF;
    34A : FFFFFFFF;
    34B : FFFFFFFF;
    34C : FFFFFFFF;
    34D : FFFFFFFF;
    34E : FFFFFFFF;
    34F : FFFFFFFF;
    350 : FFFFFFFF;
    351 : FFFFFFFF;
    352 : FFFFFFFF;
    353 : FFFFFFFF;
    354 : FFFFFFFF;
    355 : FFFFFFFF;
    356 : FFFFFFFF;
    357 : FFFFFFFF;
    358 : FFFFFFFF;
    359 : FFFFFFFF;
    35A : FFFFFFFF;
    35B : FFFFFFFF;
    35C : FFFFFFFF;
    35D : FFFFFFFF;
    35E : FFFFFFFF;
    35F : FFFFFFFF;
    360 : FFFFFFFF;
    361 : FFFFFFFF;
    362 : FFFFFFFF;
    363 : FFFFFFFF;
    364 : FFFFFFFF;
    365 : FFFFFFFF;
    366 : FFFFFFFF;
    367 : FFFFFFFF;
    368 : FFFFFFFF;
    369 : FFFFFFFF;
    36A : FFFFFFFF;
    36B : FFFFFFFF;
    36C : FFFFFFFF;
    36D : FFFFFFFF;
    36E : FFFFFFFF;
    36F : FFFFFFFF;
    370 : FFFFFFFF;
    371 : FFFFFFFF;
    372 : FFFFFFFF;
    373 : FFFFFFFF;
    374 : FFFFFFFF;
    375 : FFFFFFFF;
    376 : FFFFFFFF;
    377 : FFFFFFFF;
    378 : FFFFFFFF;
    379 : FFFFFFFF;
    37A : FFFFFFFF;
    37B : FFFFFFFF;
    37C : FFFFFFFF;
    37D : FFFFFFFF;
    37E : FFFFFFFF;
    37F : FFFFFFFF;
    380 : FFFFFFFF;
    381 : FFFFFFFF;
    382 : FFFFFFFF;
    383 : FFFFFFFF;
    384 : FFFFFFFF;
    385 : FFFFFFFF;
    386 : FFFFFFFF;
    387 : FFFFFFFF;
    388 : FFFFFFFF;
    389 : FFFFFFFF;
    38A : FFFFFFFF;
    38B : FFFFFFFF;
    38C : FFFFFFFF;
    38D : FFFFFFFF;
    38E : FFFFFFFF;
    38F : FFFFFFFF;
    390 : FFFFFFFF;
    391 : FFFFFFFF;
    392 : FFFFFFFF;
    393 : FFFFFFFF;
    394 : FFFFFFFF;
    395 : FFFFFFFF;
    396 : FFFFFFFF;
    397 : FFFFFFFF;
    398 : FFFFFFFF;
    399 : FFFFFFFF;
    39A : FFFFFFFF;
    39B : FFFFFFFF;
    39C : FFFFFFFF;
    39D : FFFFFFFF;
    39E : FFFFFFFF;
    39F : FFFFFFFF;
    3A0 : FFFFFFFF;
    3A1 : FFFFFFFF;
    3A2 : FFFFFFFF;
    3A3 : FFFFFFFF;
    3A4 : FFFFFFFF;
    3A5 : FFFFFFFF;
    3A6 : FFFFFFFF;
    3A7 : FFFFFFFF;
    3A8 : FFFFFFFF;
    3A9 : FFFFFFFF;
    3AA : FFFFFFFF;
    3AB : FFFFFFFF;
    3AC : FFFFFFFF;
    3AD : FFFFFFFF;
    3AE : FFFFFFFF;
    3AF : FFFFFFFF;
    3B0 : FFFFFFFF;
    3B1 : FFFFFFFF;
    3B2 : FFFFFFFF;
    3B3 : FFFFFFFF;
    3B4 : FFFFFFFF;
    3B5 : FFFFFFFF;
    3B6 : FFFFFFFF;
    3B7 : FFFFFFFF;
    3B8 : FFFFFFFF;
    3B9 : FFFFFFFF;
    3BA : FFFFFFFF;
    3BB : FFFFFFFF;
    3BC : FFFFFFFF;
    3BD : FFFFFFFF;
    3BE : FFFFFFFF;
    3BF : FFFFFFFF;
    3C0 : FFFFFFFF;
    3C1 : FFFFFFFF;
    3C2 : FFFFFFFF;
    3C3 : FFFFFFFF;
    3C4 : FFFFFFFF;
    3C5 : FFFFFFFF;
    3C6 : FFFFFFFF;
    3C7 : FFFFFFFF;
    3C8 : FFFFFFFF;
    3C9 : FFFFFFFF;
    3CA : FFFFFFFF;
    3CB : FFFFFFFF;
    3CC : FFFFFFFF;
    3CD : FFFFFFFF;
    3CE : FFFFFFFF;
    3CF : FFFFFFFF;
    3D0 : FFFFFFFF;
    3D1 : FFFFFFFF;
    3D2 : FFFFFFFF;
    3D3 : FFFFFFFF;
    3D4 : FFFFFFFF;
    3D5 : FFFFFFFF;
    3D6 : FFFFFFFF;
    3D7 : FFFFFFFF;
    3D8 : FFFFFFFF;
    3D9 : FFFFFFFF;
    3DA : FFFFFFFF;
    3DB : FFFFFFFF;
    3DC : FFFFFFFF;
    3DD : FFFFFFFF;
    3DE : FFFFFFFF;
    3DF : FFFFFFFF;
    3E0 : FFFFFFFF;
    3E1 : FFFFFFFF;
    3E2 : FFFFFFFF;
    3E3 : FFFFFFFF;
    3E4 : FFFFFFFF;
    3E5 : FFFFFFFF;
    3E6 : FFFFFFFF;
    3E7 : FFFFFFFF;
    3E8 : FFFFFFFF;
    3E9 : FFFFFFFF;
    3EA : FFFFFFFF;
    3EB : FFFFFFFF;
    3EC : FFFFFFFF;
    3ED : FFFFFFFF;
    3EE : FFFFFFFF;
    3EF : FFFFFFFF;
    3F0 : FFFFFFFF;
    3F1 : FFFFFFFF;
    3F2 : FFFFFFFF;
    3F3 : FFFFFFFF;
    3F4 : FFFFFFFF;
    3F5 : FFFFFFFF;
    3F6 : FFFFFFFF;
    3F7 : FFFFFFFF;
    3F8 : FFFFFFFF;
    3F9 : FFFFFFFF;
    3FA : FFFFFFFF;
    3FB : FFFFFFFF;
    3FC : FFFFFFFF;
    3FD : FFFFFFFF;
    3FE : FFFFFFFF;
    3FF : FFFFFFFF;
    400 : FFFFFFFF;
    401 : FFFFFFFF;
    402 : FFFFFFFF;
    403 : FFFFFFFF;
    404 : FFFFFFFF;
    405 : FFFFFFFF;
    406 : FFFFFFFF;
    407 : FFFFFFFF;
    408 : FFFFFFFF;
    409 : FFFFFFFF;
    40A : FFFFFFFF;
    40B : FFFFFFFF;
    40C : FFFFFFFF;
    40D : FFFFFFFF;
    40E : FFFFFFFF;
    40F : FFFFFFFF;
    410 : FFFFFFFF;
    411 : FFFFFFFF;
    412 : FFFFFFFF;
    413 : FFFFFFFF;
    414 : FFFFFFFF;
    415 : FFFFFFFF;
    416 : FFFFFFFF;
    417 : FFFFFFFF;
    418 : FFFFFFFF;
    419 : FFFFFFFF;
    41A : FFFFFFFF;
    41B : FFFFFFFF;
    41C : FFFFFFFF;
    41D : FFFFFFFF;
    41E : FFFFFFFF;
    41F : FFFFFFFF;
    420 : FFFFFFFF;
    421 : FFFFFFFF;
    422 : FFFFFFFF;
    423 : FFFFFFFF;
    424 : FFFFFFFF;
    425 : FFFFFFFF;
    426 : FFFFFFFF;
    427 : FFFFFFFF;
    428 : FFFFFFFF;
    429 : FFFFFFFF;
    42A : FFFFFFFF;
    42B : FFFFFFFF;
    42C : FFFFFFFF;
    42D : FFFFFFFF;
    42E : FFFFFFFF;
    42F : FFFFFFFF;
    430 : FFFFFFFF;
    431 : FFFFFFFF;
    432 : FFFFFFFF;
    433 : FFFFFFFF;
    434 : FFFFFFFF;
    435 : FFFFFFFF;
    436 : FFFFFFFF;
    437 : FFFFFFFF;
    438 : FFFFFFFF;
    439 : FFFFFFFF;
    43A : FFFFFFFF;
    43B : FFFFFFFF;
    43C : FFFFFFFF;
    43D : FFFFFFFF;
    43E : FFFFFFFF;
    43F : FFFFFFFF;
    440 : FFFFFFFF;
    441 : FFFFFFFF;
    442 : FFFFFFFF;
    443 : FFFFFFFF;
    444 : FFFFFFFF;
    445 : FFFFFFFF;
    446 : FFFFFFFF;
    447 : FFFFFFFF;
    448 : FFFFFFFF;
    449 : FFFFFFFF;
    44A : FFFFFFFF;
    44B : FFFFFFFF;
    44C : FFFFFFFF;
    44D : FFFFFFFF;
    44E : FFFFFFFF;
    44F : FFFFFFFF;
    450 : FFFFFFFF;
    451 : FFFFFFFF;
    452 : FFFFFFFF;
    453 : FFFFFFFF;
    454 : FFFFFFFF;
    455 : FFFFFFFF;
    456 : FFFFFFFF;
    457 : FFFFFFFF;
    458 : FFFFFFFF;
    459 : FFFFFFFF;
    45A : FFFFFFFF;
    45B : FFFFFFFF;
    45C : FFFFFFFF;
    45D : FFFFFFFF;
    45E : FFFFFFFF;
    45F : FFFFFFFF;
    460 : FFFFFFFF;
    461 : FFFFFFFF;
    462 : FFFFFFFF;
    463 : FFFFFFFF;
    464 : FFFFFFFF;
    465 : FFFFFFFF;
    466 : FFFFFFFF;
    467 : FFFFFFFF;
    468 : FFFFFFFF;
    469 : FFFFFFFF;
    46A : FFFFFFFF;
    46B : FFFFFFFF;
    46C : FFFFFFFF;
    46D : FFFFFFFF;
    46E : FFFFFFFF;
    46F : FFFFFFFF;
    470 : FFFFFFFF;
    471 : FFFFFFFF;
    472 : FFFFFFFF;
    473 : FFFFFFFF;
    474 : FFFFFFFF;
    475 : FFFFFFFF;
    476 : FFFFFFFF;
    477 : FFFFFFFF;
    478 : FFFFFFFF;
    479 : FFFFFFFF;
    47A : FFFFFFFF;
    47B : FFFFFFFF;
    47C : FFFFFFFF;
    47D : FFFFFFFF;
    47E : FFFFFFFF;
    47F : FFFFFFFF;
    480 : FFFFFFFF;
    481 : FFFFFFFF;
    482 : FFFFFFFF;
    483 : FFFFFFFF;
    484 : FFFFFFFF;
    485 : FFFFFFFF;
    486 : FFFFFFFF;
    487 : FFFFFFFF;
    488 : FFFFFFFF;
    489 : FFFFFFFF;
    48A : FFFFFFFF;
    48B : FFFFFFFF;
    48C : FFFFFFFF;
    48D : FFFFFFFF;
    48E : FFFFFFFF;
    48F : FFFFFFFF;
    490 : FFFFFFFF;
    491 : FFFFFFFF;
    492 : FFFFFFFF;
    493 : FFFFFFFF;
    494 : FFFFFFFF;
    495 : FFFFFFFF;
    496 : FFFFFFFF;
    497 : FFFFFFFF;
    498 : FFFFFFFF;
    499 : FFFFFFFF;
    49A : FFFFFFFF;
    49B : FFFFFFFF;
    49C : FFFFFFFF;
    49D : FFFFFFFF;
    49E : FFFFFFFF;
    49F : FFFFFFFF;
    4A0 : FFFFFFFF;
    4A1 : FFFFFFFF;
    4A2 : FFFFFFFF;
    4A3 : FFFFFFFF;
    4A4 : FFFFFFFF;
    4A5 : FFFFFFFF;
    4A6 : FFFFFFFF;
    4A7 : FFFFFFFF;
    4A8 : FFFFFFFF;
    4A9 : FFFFFFFF;
    4AA : FFFFFFFF;
    4AB : FFFFFFFF;
    4AC : FFFFFFFF;
    4AD : FFFFFFFF;
    4AE : FFFFFFFF;
    4AF : FFFFFFFF;
    4B0 : FFFFFFFF;
    4B1 : FFFFFFFF;
    4B2 : FFFFFFFF;
    4B3 : FFFFFFFF;
    4B4 : FFFFFFFF;
    4B5 : FFFFFFFF;
    4B6 : FFFFFFFF;
    4B7 : FFFFFFFF;
    4B8 : FFFFFFFF;
    4B9 : FFFFFFFF;
    4BA : FFFFFFFF;
    4BB : FFFFFFFF;
    4BC : FFFFFFFF;
    4BD : FFFFFFFF;
    4BE : FFFFFFFF;
    4BF : FFFFFFFF;
    4C0 : FFFFFFFF;
    4C1 : FFFFFFFF;
    4C2 : FFFFFFFF;
    4C3 : FFFFFFFF;
    4C4 : FFFFFFFF;
    4C5 : FFFFFFFF;
    4C6 : FFFFFFFF;
    4C7 : FFFFFFFF;
    4C8 : FFFFFFFF;
    4C9 : FFFFFFFF;
    4CA : FFFFFFFF;
    4CB : FFFFFFFF;
    4CC : FFFFFFFF;
    4CD : FFFFFFFF;
    4CE : FFFFFFFF;
    4CF : FFFFFFFF;
    4D0 : FFFFFFFF;
    4D1 : FFFFFFFF;
    4D2 : FFFFFFFF;
    4D3 : FFFFFFFF;
    4D4 : FFFFFFFF;
    4D5 : FFFFFFFF;
    4D6 : FFFFFFFF;
    4D7 : FFFFFFFF;
    4D8 : FFFFFFFF;
    4D9 : FFFFFFFF;
    4DA : FFFFFFFF;
    4DB : FFFFFFFF;
    4DC : FFFFFFFF;
    4DD : FFFFFFFF;
    4DE : FFFFFFFF;
    4DF : FFFFFFFF;
    4E0 : FFFFFFFF;
    4E1 : FFFFFFFF;
    4E2 : FFFFFFFF;
    4E3 : FFFFFFFF;
    4E4 : FFFFFFFF;
    4E5 : FFFFFFFF;
    4E6 : FFFFFFFF;
    4E7 : FFFFFFFF;
    4E8 : FFFFFFFF;
    4E9 : FFFFFFFF;
    4EA : FFFFFFFF;
    4EB : FFFFFFFF;
    4EC : FFFFFFFF;
    4ED : FFFFFFFF;
    4EE : FFFFFFFF;
    4EF : FFFFFFFF;
    4F0 : FFFFFFFF;
    4F1 : FFFFFFFF;
    4F2 : FFFFFFFF;
    4F3 : FFFFFFFF;
    4F4 : FFFFFFFF;
    4F5 : FFFFFFFF;
    4F6 : FFFFFFFF;
    4F7 : FFFFFFFF;
    4F8 : FFFFFFFF;
    4F9 : FFFFFFFF;
    4FA : FFFFFFFF;
    4FB : FFFFFFFF;
    4FC : FFFFFFFF;
    4FD : FFFFFFFF;
    4FE : FFFFFFFF;
    4FF : FFFFFFFF;
    500 : FFFFFFFF;
    501 : FFFFFFFF;
    502 : FFFFFFFF;
    503 : FFFFFFFF;
    504 : FFFFFFFF;
    505 : FFFFFFFF;
    506 : FFFFFFFF;
    507 : FFFFFFFF;
    508 : FFFFFFFF;
    509 : FFFFFFFF;
    50A : FFFFFFFF;
    50B : FFFFFFFF;
    50C : FFFFFFFF;
    50D : FFFFFFFF;
    50E : FFFFFFFF;
    50F : FFFFFFFF;
    510 : FFFFFFFF;
    511 : FFFFFFFF;
    512 : FFFFFFFF;
    513 : FFFFFFFF;
    514 : FFFFFFFF;
    515 : FFFFFFFF;
    516 : FFFFFFFF;
    517 : FFFFFFFF;
    518 : FFFFFFFF;
    519 : FFFFFFFF;
    51A : FFFFFFFF;
    51B : FFFFFFFF;
    51C : FFFFFFFF;
    51D : FFFFFFFF;
    51E : FFFFFFFF;
    51F : FFFFFFFF;
    520 : FFFFFFFF;
    521 : FFFFFFFF;
    522 : FFFFFFFF;
    523 : FFFFFFFF;
    524 : FFFFFFFF;
    525 : FFFFFFFF;
    526 : FFFFFFFF;
    527 : FFFFFFFF;
    528 : FFFFFFFF;
    529 : FFFFFFFF;
    52A : FFFFFFFF;
    52B : FFFFFFFF;
    52C : FFFFFFFF;
    52D : FFFFFFFF;
    52E : FFFFFFFF;
    52F : FFFFFFFF;
    530 : FFFFFFFF;
    531 : FFFFFFFF;
    532 : FFFFFFFF;
    533 : FFFFFFFF;
    534 : FFFFFFFF;
    535 : FFFFFFFF;
    536 : FFFFFFFF;
    537 : FFFFFFFF;
    538 : FFFFFFFF;
    539 : FFFFFFFF;
    53A : FFFFFFFF;
    53B : FFFFFFFF;
    53C : FFFFFFFF;
    53D : FFFFFFFF;
    53E : FFFFFFFF;
    53F : FFFFFFFF;
    540 : FFFFFFFF;
    541 : FFFFFFFF;
    542 : FFFFFFFF;
    543 : FFFFFFFF;
    544 : FFFFFFFF;
    545 : FFFFFFFF;
    546 : FFFFFFFF;
    547 : FFFFFFFF;
    548 : FFFFFFFF;
    549 : FFFFFFFF;
    54A : FFFFFFFF;
    54B : FFFFFFFF;
    54C : FFFFFFFF;
    54D : FFFFFFFF;
    54E : FFFFFFFF;
    54F : FFFFFFFF;
    550 : FFFFFFFF;
    551 : FFFFFFFF;
    552 : FFFFFFFF;
    553 : FFFFFFFF;
    554 : FFFFFFFF;
    555 : FFFFFFFF;
    556 : FFFFFFFF;
    557 : FFFFFFFF;
    558 : FFFFFFFF;
    559 : FFFFFFFF;
    55A : FFFFFFFF;
    55B : FFFFFFFF;
    55C : FFFFFFFF;
    55D : FFFFFFFF;
    55E : FFFFFFFF;
    55F : FFFFFFFF;
    560 : FFFFFFFF;
    561 : FFFFFFFF;
    562 : FFFFFFFF;
    563 : FFFFFFFF;
    564 : FFFFFFFF;
    565 : FFFFFFFF;
    566 : FFFFFFFF;
    567 : FFFFFFFF;
    568 : FFFFFFFF;
    569 : FFFFFFFF;
    56A : FFFFFFFF;
    56B : FFFFFFFF;
    56C : FFFFFFFF;
    56D : FFFFFFFF;
    56E : FFFFFFFF;
    56F : FFFFFFFF;
    570 : FFFFFFFF;
    571 : FFFFFFFF;
    572 : FFFFFFFF;
    573 : FFFFFFFF;
    574 : FFFFFFFF;
    575 : FFFFFFFF;
    576 : FFFFFFFF;
    577 : FFFFFFFF;
    578 : FFFFFFFF;
    579 : FFFFFFFF;
    57A : FFFFFFFF;
    57B : FFFFFFFF;
    57C : FFFFFFFF;
    57D : FFFFFFFF;
    57E : FFFFFFFF;
    57F : FFFFFFFF;
    580 : FFFFFFFF;
    581 : FFFFFFFF;
    582 : FFFFFFFF;
    583 : FFFFFFFF;
    584 : FFFFFFFF;
    585 : FFFFFFFF;
    586 : FFFFFFFF;
    587 : FFFFFFFF;
    588 : FFFFFFFF;
    589 : FFFFFFFF;
    58A : FFFFFFFF;
    58B : FFFFFFFF;
    58C : FFFFFFFF;
    58D : FFFFFFFF;
    58E : FFFFFFFF;
    58F : FFFFFFFF;
    590 : FFFFFFFF;
    591 : FFFFFFFF;
    592 : FFFFFFFF;
    593 : FFFFFFFF;
    594 : FFFFFFFF;
    595 : FFFFFFFF;
    596 : FFFFFFFF;
    597 : FFFFFFFF;
    598 : FFFFFFFF;
    599 : FFFFFFFF;
    59A : FFFFFFFF;
    59B : FFFFFFFF;
    59C : FFFFFFFF;
    59D : FFFFFFFF;
    59E : FFFFFFFF;
    59F : FFFFFFFF;
    5A0 : FFFFFFFF;
    5A1 : FFFFFFFF;
    5A2 : FFFFFFFF;
    5A3 : FFFFFFFF;
    5A4 : FFFFFFFF;
    5A5 : FFFFFFFF;
    5A6 : FFFFFFFF;
    5A7 : FFFFFFFF;
    5A8 : FFFFFFFF;
    5A9 : FFFFFFFF;
    5AA : FFFFFFFF;
    5AB : FFFFFFFF;
    5AC : FFFFFFFF;
    5AD : FFFFFFFF;
    5AE : FFFFFFFF;
    5AF : FFFFFFFF;
    5B0 : FFFFFFFF;
    5B1 : FFFFFFFF;
    5B2 : FFFFFFFF;
    5B3 : FFFFFFFF;
    5B4 : FFFFFFFF;
    5B5 : FFFFFFFF;
    5B6 : FFFFFFFF;
    5B7 : FFFFFFFF;
    5B8 : FFFFFFFF;
    5B9 : FFFFFFFF;
    5BA : FFFFFFFF;
    5BB : FFFFFFFF;
    5BC : FFFFFFFF;
    5BD : FFFFFFFF;
    5BE : FFFFFFFF;
    5BF : FFFFFFFF;
    5C0 : FFFFFFFF;
    5C1 : FFFFFFFF;
    5C2 : FFFFFFFF;
    5C3 : FFFFFFFF;
    5C4 : FFFFFFFF;
    5C5 : FFFFFFFF;
    5C6 : FFFFFFFF;
    5C7 : FFFFFFFF;
    5C8 : FFFFFFFF;
    5C9 : FFFFFFFF;
    5CA : FFFFFFFF;
    5CB : FFFFFFFF;
    5CC : FFFFFFFF;
    5CD : FFFFFFFF;
    5CE : FFFFFFFF;
    5CF : FFFFFFFF;
    5D0 : FFFFFFFF;
    5D1 : FFFFFFFF;
    5D2 : FFFFFFFF;
    5D3 : FFFFFFFF;
    5D4 : FFFFFFFF;
    5D5 : FFFFFFFF;
    5D6 : FFFFFFFF;
    5D7 : FFFFFFFF;
    5D8 : FFFFFFFF;
    5D9 : FFFFFFFF;
    5DA : FFFFFFFF;
    5DB : FFFFFFFF;
    5DC : FFFFFFFF;
    5DD : FFFFFFFF;
    5DE : FFFFFFFF;
    5DF : FFFFFFFF;
    5E0 : FFFFFFFF;
    5E1 : FFFFFFFF;
    5E2 : FFFFFFFF;
    5E3 : FFFFFFFF;
    5E4 : FFFFFFFF;
    5E5 : FFFFFFFF;
    5E6 : FFFFFFFF;
    5E7 : FFFFFFFF;
    5E8 : FFFFFFFF;
    5E9 : FFFFFFFF;
    5EA : FFFFFFFF;
    5EB : FFFFFFFF;
    5EC : FFFFFFFF;
    5ED : FFFFFFFF;
    5EE : FFFFFFFF;
    5EF : FFFFFFFF;
    5F0 : FFFFFFFF;
    5F1 : FFFFFFFF;
    5F2 : FFFFFFFF;
    5F3 : FFFFFFFF;
    5F4 : FFFFFFFF;
    5F5 : FFFFFFFF;
    5F6 : FFFFFFFF;
    5F7 : FFFFFFFF;
    5F8 : FFFFFFFF;
    5F9 : FFFFFFFF;
    5FA : FFFFFFFF;
    5FB : FFFFFFFF;
    5FC : FFFFFFFF;
    5FD : FFFFFFFF;
    5FE : FFFFFFFF;
    5FF : FFFFFFFF;
    600 : FFFFFFFF;
    601 : FFFFFFFF;
    602 : FFFFFFFF;
    603 : FFFFFFFF;
    604 : FFFFFFFF;
    605 : FFFFFFFF;
    606 : FFFFFFFF;
    607 : FFFFFFFF;
    608 : FFFFFFFF;
    609 : FFFFFFFF;
    60A : FFFFFFFF;
    60B : FFFFFFFF;
    60C : FFFFFFFF;
    60D : FFFFFFFF;
    60E : FFFFFFFF;
    60F : FFFFFFFF;
    610 : FFFFFFFF;
    611 : FFFFFFFF;
    612 : FFFFFFFF;
    613 : FFFFFFFF;
    614 : FFFFFFFF;
    615 : FFFFFFFF;
    616 : FFFFFFFF;
    617 : FFFFFFFF;
    618 : FFFFFFFF;
    619 : FFFFFFFF;
    61A : FFFFFFFF;
    61B : FFFFFFFF;
    61C : FFFFFFFF;
    61D : FFFFFFFF;
    61E : FFFFFFFF;
    61F : FFFFFFFF;
    620 : FFFFFFFF;
    621 : FFFFFFFF;
    622 : FFFFFFFF;
    623 : FFFFFFFF;
    624 : FFFFFFFF;
    625 : FFFFFFFF;
    626 : FFFFFFFF;
    627 : FFFFFFFF;
    628 : FFFFFFFF;
    629 : FFFFFFFF;
    62A : FFFFFFFF;
    62B : FFFFFFFF;
    62C : FFFFFFFF;
    62D : FFFFFFFF;
    62E : FFFFFFFF;
    62F : FFFFFFFF;
    630 : FFFFFFFF;
    631 : FFFFFFFF;
    632 : FFFFFFFF;
    633 : FFFFFFFF;
    634 : FFFFFFFF;
    635 : FFFFFFFF;
    636 : FFFFFFFF;
    637 : FFFFFFFF;
    638 : FFFFFFFF;
    639 : FFFFFFFF;
    63A : FFFFFFFF;
    63B : FFFFFFFF;
    63C : FFFFFFFF;
    63D : FFFFFFFF;
    63E : FFFFFFFF;
    63F : FFFFFFFF;
    640 : FFFFFFFF;
    641 : FFFFFFFF;
    642 : FFFFFFFF;
    643 : FFFFFFFF;
    644 : FFFFFFFF;
    645 : FFFFFFFF;
    646 : FFFFFFFF;
    647 : FFFFFFFF;
    648 : FFFFFFFF;
    649 : FFFFFFFF;
    64A : FFFFFFFF;
    64B : FFFFFFFF;
    64C : FFFFFFFF;
    64D : FFFFFFFF;
    64E : FFFFFFFF;
    64F : FFFFFFFF;
    650 : FFFFFFFF;
    651 : FFFFFFFF;
    652 : FFFFFFFF;
    653 : FFFFFFFF;
    654 : FFFFFFFF;
    655 : FFFFFFFF;
    656 : FFFFFFFF;
    657 : FFFFFFFF;
    658 : FFFFFFFF;
    659 : FFFFFFFF;
    65A : FFFFFFFF;
    65B : FFFFFFFF;
    65C : FFFFFFFF;
    65D : FFFFFFFF;
    65E : FFFFFFFF;
    65F : FFFFFFFF;
    660 : FFFFFFFF;
    661 : FFFFFFFF;
    662 : FFFFFFFF;
    663 : FFFFFFFF;
    664 : FFFFFFFF;
    665 : FFFFFFFF;
    666 : FFFFFFFF;
    667 : FFFFFFFF;
    668 : FFFFFFFF;
    669 : FFFFFFFF;
    66A : FFFFFFFF;
    66B : FFFFFFFF;
    66C : FFFFFFFF;
    66D : FFFFFFFF;
    66E : FFFFFFFF;
    66F : FFFFFFFF;
    670 : FFFFFFFF;
    671 : FFFFFFFF;
    672 : FFFFFFFF;
    673 : FFFFFFFF;
    674 : FFFFFFFF;
    675 : FFFFFFFF;
    676 : FFFFFFFF;
    677 : FFFFFFFF;
    678 : FFFFFFFF;
    679 : FFFFFFFF;
    67A : FFFFFFFF;
    67B : FFFFFFFF;
    67C : FFFFFFFF;
    67D : FFFFFFFF;
    67E : FFFFFFFF;
    67F : FFFFFFFF;
    680 : FFFFFFFF;
    681 : FFFFFFFF;
    682 : FFFFFFFF;
    683 : FFFFFFFF;
    684 : FFFFFFFF;
    685 : FFFFFFFF;
    686 : FFFFFFFF;
    687 : FFFFFFFF;
    688 : FFFFFFFF;
    689 : FFFFFFFF;
    68A : FFFFFFFF;
    68B : FFFFFFFF;
    68C : FFFFFFFF;
    68D : FFFFFFFF;
    68E : FFFFFFFF;
    68F : FFFFFFFF;
    690 : FFFFFFFF;
    691 : FFFFFFFF;
    692 : FFFFFFFF;
    693 : FFFFFFFF;
    694 : FFFFFFFF;
    695 : FFFFFFFF;
    696 : FFFFFFFF;
    697 : FFFFFFFF;
    698 : FFFFFFFF;
    699 : FFFFFFFF;
    69A : FFFFFFFF;
    69B : FFFFFFFF;
    69C : FFFFFFFF;
    69D : FFFFFFFF;
    69E : FFFFFFFF;
    69F : FFFFFFFF;
    6A0 : FFFFFFFF;
    6A1 : FFFFFFFF;
    6A2 : FFFFFFFF;
    6A3 : FFFFFFFF;
    6A4 : FFFFFFFF;
    6A5 : FFFFFFFF;
    6A6 : FFFFFFFF;
    6A7 : FFFFFFFF;
    6A8 : FFFFFFFF;
    6A9 : FFFFFFFF;
    6AA : FFFFFFFF;
    6AB : FFFFFFFF;
    6AC : FFFFFFFF;
    6AD : FFFFFFFF;
    6AE : FFFFFFFF;
    6AF : FFFFFFFF;
    6B0 : FFFFFFFF;
    6B1 : FFFFFFFF;
    6B2 : FFFFFFFF;
    6B3 : FFFFFFFF;
    6B4 : FFFFFFFF;
    6B5 : FFFFFFFF;
    6B6 : FFFFFFFF;
    6B7 : FFFFFFFF;
    6B8 : FFFFFFFF;
    6B9 : FFFFFFFF;
    6BA : FFFFFFFF;
    6BB : FFFFFFFF;
    6BC : FFFFFFFF;
    6BD : FFFFFFFF;
    6BE : FFFFFFFF;
    6BF : FFFFFFFF;
    6C0 : FFFFFFFF;
    6C1 : FFFFFFFF;
    6C2 : FFFFFFFF;
    6C3 : FFFFFFFF;
    6C4 : FFFFFFFF;
    6C5 : FFFFFFFF;
    6C6 : FFFFFFFF;
    6C7 : FFFFFFFF;
    6C8 : FFFFFFFF;
    6C9 : FFFFFFFF;
    6CA : FFFFFFFF;
    6CB : FFFFFFFF;
    6CC : FFFFFFFF;
    6CD : FFFFFFFF;
    6CE : FFFFFFFF;
    6CF : FFFFFFFF;
    6D0 : FFFFFFFF;
    6D1 : FFFFFFFF;
    6D2 : FFFFFFFF;
    6D3 : FFFFFFFF;
    6D4 : FFFFFFFF;
    6D5 : FFFFFFFF;
    6D6 : FFFFFFFF;
    6D7 : FFFFFFFF;
    6D8 : FFFFFFFF;
    6D9 : FFFFFFFF;
    6DA : FFFFFFFF;
    6DB : FFFFFFFF;
    6DC : FFFFFFFF;
    6DD : FFFFFFFF;
    6DE : FFFFFFFF;
    6DF : FFFFFFFF;
    6E0 : FFFFFFFF;
    6E1 : FFFFFFFF;
    6E2 : FFFFFFFF;
    6E3 : FFFFFFFF;
    6E4 : FFFFFFFF;
    6E5 : FFFFFFFF;
    6E6 : FFFFFFFF;
    6E7 : FFFFFFFF;
    6E8 : FFFFFFFF;
    6E9 : FFFFFFFF;
    6EA : FFFFFFFF;
    6EB : FFFFFFFF;
    6EC : FFFFFFFF;
    6ED : FFFFFFFF;
    6EE : FFFFFFFF;
    6EF : FFFFFFFF;
    6F0 : FFFFFFFF;
    6F1 : FFFFFFFF;
    6F2 : FFFFFFFF;
    6F3 : FFFFFFFF;
    6F4 : FFFFFFFF;
    6F5 : FFFFFFFF;
    6F6 : FFFFFFFF;
    6F7 : FFFFFFFF;
    6F8 : FFFFFFFF;
    6F9 : FFFFFFFF;
    6FA : FFFFFFFF;
    6FB : FFFFFFFF;
    6FC : FFFFFFFF;
    6FD : FFFFFFFF;
    6FE : FFFFFFFF;
    6FF : FFFFFFFF;
    700 : FFFFFFFF;
    701 : FFFFFFFF;
    702 : FFFFFFFF;
    703 : FFFFFFFF;
    704 : FFFFFFFF;
    705 : FFFFFFFF;
    706 : FFFFFFFF;
    707 : FFFFFFFF;
    708 : FFFFFFFF;
    709 : FFFFFFFF;
    70A : FFFFFFFF;
    70B : FFFFFFFF;
    70C : FFFFFFFF;
    70D : FFFFFFFF;
    70E : FFFFFFFF;
    70F : FFFFFFFF;
    710 : FFFFFFFF;
    711 : FFFFFFFF;
    712 : FFFFFFFF;
    713 : FFFFFFFF;
    714 : FFFFFFFF;
    715 : FFFFFFFF;
    716 : FFFFFFFF;
    717 : FFFFFFFF;
    718 : FFFFFFFF;
    719 : FFFFFFFF;
    71A : FFFFFFFF;
    71B : FFFFFFFF;
    71C : FFFFFFFF;
    71D : FFFFFFFF;
    71E : FFFFFFFF;
    71F : FFFFFFFF;
    720 : FFFFFFFF;
    721 : FFFFFFFF;
    722 : FFFFFFFF;
    723 : FFFFFFFF;
    724 : FFFFFFFF;
    725 : FFFFFFFF;
    726 : FFFFFFFF;
    727 : FFFFFFFF;
    728 : FFFFFFFF;
    729 : FFFFFFFF;
    72A : FFFFFFFF;
    72B : FFFFFFFF;
    72C : FFFFFFFF;
    72D : FFFFFFFF;
    72E : FFFFFFFF;
    72F : FFFFFFFF;
    730 : FFFFFFFF;
    731 : FFFFFFFF;
    732 : FFFFFFFF;
    733 : FFFFFFFF;
    734 : FFFFFFFF;
    735 : FFFFFFFF;
    736 : FFFFFFFF;
    737 : FFFFFFFF;
    738 : FFFFFFFF;
    739 : FFFFFFFF;
    73A : FFFFFFFF;
    73B : FFFFFFFF;
    73C : FFFFFFFF;
    73D : FFFFFFFF;
    73E : FFFFFFFF;
    73F : FFFFFFFF;
    740 : FFFFFFFF;
    741 : FFFFFFFF;
    742 : FFFFFFFF;
    743 : FFFFFFFF;
    744 : FFFFFFFF;
    745 : FFFFFFFF;
    746 : FFFFFFFF;
    747 : FFFFFFFF;
    748 : FFFFFFFF;
    749 : FFFFFFFF;
    74A : FFFFFFFF;
    74B : FFFFFFFF;
    74C : FFFFFFFF;
    74D : FFFFFFFF;
    74E : FFFFFFFF;
    74F : FFFFFFFF;
    750 : FFFFFFFF;
    751 : FFFFFFFF;
    752 : FFFFFFFF;
    753 : FFFFFFFF;
    754 : FFFFFFFF;
    755 : FFFFFFFF;
    756 : FFFFFFFF;
    757 : FFFFFFFF;
    758 : FFFFFFFF;
    759 : FFFFFFFF;
    75A : FFFFFFFF;
    75B : FFFFFFFF;
    75C : FFFFFFFF;
    75D : FFFFFFFF;
    75E : FFFFFFFF;
    75F : FFFFFFFF;
    760 : FFFFFFFF;
    761 : FFFFFFFF;
    762 : FFFFFFFF;
    763 : FFFFFFFF;
    764 : FFFFFFFF;
    765 : FFFFFFFF;
    766 : FFFFFFFF;
    767 : FFFFFFFF;
    768 : FFFFFFFF;
    769 : FFFFFFFF;
    76A : FFFFFFFF;
    76B : FFFFFFFF;
    76C : FFFFFFFF;
    76D : FFFFFFFF;
    76E : FFFFFFFF;
    76F : FFFFFFFF;
    770 : FFFFFFFF;
    771 : FFFFFFFF;
    772 : FFFFFFFF;
    773 : FFFFFFFF;
    774 : FFFFFFFF;
    775 : FFFFFFFF;
    776 : FFFFFFFF;
    777 : FFFFFFFF;
    778 : FFFFFFFF;
    779 : FFFFFFFF;
    77A : FFFFFFFF;
    77B : FFFFFFFF;
    77C : FFFFFFFF;
    77D : FFFFFFFF;
    77E : FFFFFFFF;
    77F : FFFFFFFF;
    780 : FFFFFFFF;
    781 : FFFFFFFF;
    782 : FFFFFFFF;
    783 : FFFFFFFF;
    784 : FFFFFFFF;
    785 : FFFFFFFF;
    786 : FFFFFFFF;
    787 : FFFFFFFF;
    788 : FFFFFFFF;
    789 : FFFFFFFF;
    78A : FFFFFFFF;
    78B : FFFFFFFF;
    78C : FFFFFFFF;
    78D : FFFFFFFF;
    78E : FFFFFFFF;
    78F : FFFFFFFF;
    790 : FFFFFFFF;
    791 : FFFFFFFF;
    792 : FFFFFFFF;
    793 : FFFFFFFF;
    794 : FFFFFFFF;
    795 : FFFFFFFF;
    796 : FFFFFFFF;
    797 : FFFFFFFF;
    798 : FFFFFFFF;
    799 : FFFFFFFF;
    79A : FFFFFFFF;
    79B : FFFFFFFF;
    79C : FFFFFFFF;
    79D : FFFFFFFF;
    79E : FFFFFFFF;
    79F : FFFFFFFF;
    7A0 : FFFFFFFF;
    7A1 : FFFFFFFF;
    7A2 : FFFFFFFF;
    7A3 : FFFFFFFF;
    7A4 : FFFFFFFF;
    7A5 : FFFFFFFF;
    7A6 : FFFFFFFF;
    7A7 : FFFFFFFF;
    7A8 : FFFFFFFF;
    7A9 : FFFFFFFF;
    7AA : FFFFFFFF;
    7AB : FFFFFFFF;
    7AC : FFFFFFFF;
    7AD : FFFFFFFF;
    7AE : FFFFFFFF;
    7AF : FFFFFFFF;
    7B0 : FFFFFFFF;
    7B1 : FFFFFFFF;
    7B2 : FFFFFFFF;
    7B3 : FFFFFFFF;
    7B4 : FFFFFFFF;
    7B5 : FFFFFFFF;
    7B6 : FFFFFFFF;
    7B7 : FFFFFFFF;
    7B8 : FFFFFFFF;
    7B9 : FFFFFFFF;
    7BA : FFFFFFFF;
    7BB : FFFFFFFF;
    7BC : FFFFFFFF;
    7BD : FFFFFFFF;
    7BE : FFFFFFFF;
    7BF : FFFFFFFF;
    7C0 : FFFFFFFF;
    7C1 : FFFFFFFF;
    7C2 : FFFFFFFF;
    7C3 : FFFFFFFF;
    7C4 : FFFFFFFF;
    7C5 : FFFFFFFF;
    7C6 : FFFFFFFF;
    7C7 : FFFFFFFF;
    7C8 : FFFFFFFF;
    7C9 : FFFFFFFF;
    7CA : FFFFFFFF;
    7CB : FFFFFFFF;
    7CC : FFFFFFFF;
    7CD : FFFFFFFF;
    7CE : FFFFFFFF;
    7CF : FFFFFFFF;
    7D0 : FFFFFFFF;
    7D1 : FFFFFFFF;
    7D2 : FFFFFFFF;
    7D3 : FFFFFFFF;
    7D4 : FFFFFFFF;
    7D5 : FFFFFFFF;
    7D6 : FFFFFFFF;
    7D7 : FFFFFFFF;
    7D8 : FFFFFFFF;
    7D9 : FFFFFFFF;
    7DA : FFFFFFFF;
    7DB : FFFFFFFF;
    7DC : FFFFFFFF;
    7DD : FFFFFFFF;
    7DE : FFFFFFFF;
    7DF : FFFFFFFF;
    7E0 : FFFFFFFF;
    7E1 : FFFFFFFF;
    7E2 : FFFFFFFF;
    7E3 : FFFFFFFF;
    7E4 : FFFFFFFF;
    7E5 : FFFFFFFF;
    7E6 : FFFFFFFF;
    7E7 : FFFFFFFF;
    7E8 : FFFFFFFF;
    7E9 : FFFFFFFF;
    7EA : FFFFFFFF;
    7EB : FFFFFFFF;
    7EC : FFFFFFFF;
    7ED : FFFFFFFF;
    7EE : FFFFFFFF;
    7EF : FFFFFFFF;
    7F0 : FFFFFFFF;
    7F1 : FFFFFFFF;
    7F2 : FFFFFFFF;
    7F3 : FFFFFFFF;
    7F4 : FFFFFFFF;
    7F5 : FFFFFFFF;
    7F6 : FFFFFFFF;
    7F7 : FFFFFFFF;
    7F8 : FFFFFFFF;
    7F9 : FFFFFFFF;
    7FA : FFFFFFFF;
    7FB : FFFFFFFF;
    7FC : FFFFFFFF;
    7FD : FFFFFFFF;
    7FE : FFFFFFFF;
    7FF : FFFFFFFF;
    800 : FFFFFFFF;
    801 : FFFFFFFF;
    802 : FFFFFFFF;
    803 : FFFFFFFF;
    804 : FFFFFFFF;
    805 : FFFFFFFF;
    806 : FFFFFFFF;
    807 : FFFFFFFF;
    808 : FFFFFFFF;
    809 : FFFFFFFF;
    80A : FFFFFFFF;
    80B : FFFFFFFF;
    80C : FFFFFFFF;
    80D : FFFFFFFF;
    80E : FFFFFFFF;
    80F : FFFFFFFF;
    810 : FFFFFFFF;
    811 : FFFFFFFF;
    812 : FFFFFFFF;
    813 : FFFFFFFF;
    814 : FFFFFFFF;
    815 : FFFFFFFF;
    816 : FFFFFFFF;
    817 : FFFFFFFF;
    818 : FFFFFFFF;
    819 : FFFFFFFF;
    81A : FFFFFFFF;
    81B : FFFFFFFF;
    81C : FFFFFFFF;
    81D : FFFFFFFF;
    81E : FFFFFFFF;
    81F : FFFFFFFF;
    820 : FFFFFFFF;
    821 : FFFFFFFF;
    822 : FFFFFFFF;
    823 : FFFFFFFF;
    824 : FFFFFFFF;
    825 : FFFFFFFF;
    826 : FFFFFFFF;
    827 : FFFFFFFF;
    828 : FFFFFFFF;
    829 : FFFFFFFF;
    82A : FFFFFFFF;
    82B : FFFFFFFF;
    82C : FFFFFFFF;
    82D : FFFFFFFF;
    82E : FFFFFFFF;
    82F : FFFFFFFF;
    830 : FFFFFFFF;
    831 : FFFFFFFF;
    832 : FFFFFFFF;
    833 : FFFFFFFF;
    834 : FFFFFFFF;
    835 : FFFFFFFF;
    836 : FFFFFFFF;
    837 : FFFFFFFF;
    838 : FFFFFFFF;
    839 : FFFFFFFF;
    83A : FFFFFFFF;
    83B : FFFFFFFF;
    83C : FFFFFFFF;
    83D : FFFFFFFF;
    83E : FFFFFFFF;
    83F : FFFFFFFF;
    840 : FFFFFFFF;
    841 : FFFFFFFF;
    842 : FFFFFFFF;
    843 : FFFFFFFF;
    844 : FFFFFFFF;
    845 : FFFFFFFF;
    846 : FFFFFFFF;
    847 : FFFFFFFF;
    848 : FFFFFFFF;
    849 : FFFFFFFF;
    84A : FFFFFFFF;
    84B : FFFFFFFF;
    84C : FFFFFFFF;
    84D : FFFFFFFF;
    84E : FFFFFFFF;
    84F : FFFFFFFF;
    850 : FFFFFFFF;
    851 : FFFFFFFF;
    852 : FFFFFFFF;
    853 : FFFFFFFF;
    854 : FFFFFFFF;
    855 : FFFFFFFF;
    856 : FFFFFFFF;
    857 : FFFFFFFF;
    858 : FFFFFFFF;
    859 : FFFFFFFF;
    85A : FFFFFFFF;
    85B : FFFFFFFF;
    85C : FFFFFFFF;
    85D : FFFFFFFF;
    85E : FFFFFFFF;
    85F : FFFFFFFF;
    860 : FFFFFFFF;
    861 : FFFFFFFF;
    862 : FFFFFFFF;
    863 : FFFFFFFF;
    864 : FFFFFFFF;
    865 : FFFFFFFF;
    866 : FFFFFFFF;
    867 : FFFFFFFF;
    868 : FFFFFFFF;
    869 : FFFFFFFF;
    86A : FFFFFFFF;
    86B : FFFFFFFF;
    86C : FFFFFFFF;
    86D : FFFFFFFF;
    86E : FFFFFFFF;
    86F : FFFFFFFF;
    870 : FFFFFFFF;
    871 : FFFFFFFF;
    872 : FFFFFFFF;
    873 : FFFFFFFF;
    874 : FFFFFFFF;
    875 : FFFFFFFF;
    876 : FFFFFFFF;
    877 : FFFFFFFF;
    878 : FFFFFFFF;
    879 : FFFFFFFF;
    87A : FFFFFFFF;
    87B : FFFFFFFF;
    87C : FFFFFFFF;
    87D : FFFFFFFF;
    87E : FFFFFFFF;
    87F : FFFFFFFF;
    880 : FFFFFFFF;
    881 : FFFFFFFF;
    882 : FFFFFFFF;
    883 : FFFFFFFF;
    884 : FFFFFFFF;
    885 : FFFFFFFF;
    886 : FFFFFFFF;
    887 : FFFFFFFF;
    888 : FFFFFFFF;
    889 : FFFFFFFF;
    88A : FFFFFFFF;
    88B : FFFFFFFF;
    88C : FFFFFFFF;
    88D : FFFFFFFF;
    88E : FFFFFFFF;
    88F : FFFFFFFF;
    890 : FFFFFFFF;
    891 : FFFFFFFF;
    892 : FFFFFFFF;
    893 : FFFFFFFF;
    894 : FFFFFFFF;
    895 : FFFFFFFF;
    896 : FFFFFFFF;
    897 : FFFFFFFF;
    898 : FFFFFFFF;
    899 : FFFFFFFF;
    89A : FFFFFFFF;
    89B : FFFFFFFF;
    89C : FFFFFFFF;
    89D : FFFFFFFF;
    89E : FFFFFFFF;
    89F : FFFFFFFF;
    8A0 : FFFFFFFF;
    8A1 : FFFFFFFF;
    8A2 : FFFFFFFF;
    8A3 : FFFFFFFF;
    8A4 : FFFFFFFF;
    8A5 : FFFFFFFF;
    8A6 : FFFFFFFF;
    8A7 : FFFFFFFF;
    8A8 : FFFFFFFF;
    8A9 : FFFFFFFF;
    8AA : FFFFFFFF;
    8AB : FFFFFFFF;
    8AC : FFFFFFFF;
    8AD : FFFFFFFF;
    8AE : FFFFFFFF;
    8AF : FFFFFFFF;
    8B0 : FFFFFFFF;
    8B1 : FFFFFFFF;
    8B2 : FFFFFFFF;
    8B3 : FFFFFFFF;
    8B4 : FFFFFFFF;
    8B5 : FFFFFFFF;
    8B6 : FFFFFFFF;
    8B7 : FFFFFFFF;
    8B8 : FFFFFFFF;
    8B9 : FFFFFFFF;
    8BA : FFFFFFFF;
    8BB : FFFFFFFF;
    8BC : FFFFFFFF;
    8BD : FFFFFFFF;
    8BE : FFFFFFFF;
    8BF : FFFFFFFF;
    8C0 : FFFFFFFF;
    8C1 : FFFFFFFF;
    8C2 : FFFFFFFF;
    8C3 : FFFFFFFF;
    8C4 : FFFFFFFF;
    8C5 : FFFFFFFF;
    8C6 : FFFFFFFF;
    8C7 : FFFFFFFF;
    8C8 : FFFFFFFF;
    8C9 : FFFFFFFF;
    8CA : FFFFFFFF;
    8CB : FFFFFFFF;
    8CC : FFFFFFFF;
    8CD : FFFFFFFF;
    8CE : FFFFFFFF;
    8CF : FFFFFFFF;
    8D0 : FFFFFFFF;
    8D1 : FFFFFFFF;
    8D2 : FFFFFFFF;
    8D3 : FFFFFFFF;
    8D4 : FFFFFFFF;
    8D5 : FFFFFFFF;
    8D6 : FFFFFFFF;
    8D7 : FFFFFFFF;
    8D8 : FFFFFFFF;
    8D9 : FFFFFFFF;
    8DA : FFFFFFFF;
    8DB : FFFFFFFF;
    8DC : FFFFFFFF;
    8DD : FFFFFFFF;
    8DE : FFFFFFFF;
    8DF : FFFFFFFF;
    8E0 : FFFFFFFF;
    8E1 : FFFFFFFF;
    8E2 : FFFFFFFF;
    8E3 : FFFFFFFF;
    8E4 : FFFFFFFF;
    8E5 : FFFFFFFF;
    8E6 : FFFFFFFF;
    8E7 : FFFFFFFF;
    8E8 : FFFFFFFF;
    8E9 : FFFFFFFF;
    8EA : FFFFFFFF;
    8EB : FFFFFFFF;
    8EC : FFFFFFFF;
    8ED : FFFFFFFF;
    8EE : FFFFFFFF;
    8EF : FFFFFFFF;
    8F0 : FFFFFFFF;
    8F1 : FFFFFFFF;
    8F2 : FFFFFFFF;
    8F3 : FFFFFFFF;
    8F4 : FFFFFFFF;
    8F5 : FFFFFFFF;
    8F6 : FFFFFFFF;
    8F7 : FFFFFFFF;
    8F8 : FFFFFFFF;
    8F9 : FFFFFFFF;
    8FA : FFFFFFFF;
    8FB : FFFFFFFF;
    8FC : FFFFFFFF;
    8FD : FFFFFFFF;
    8FE : FFFFFFFF;
    8FF : FFFFFFFF;
    900 : FFFFFFFF;
    901 : FFFFFFFF;
    902 : FFFFFFFF;
    903 : FFFFFFFF;
    904 : FFFFFFFF;
    905 : FFFFFFFF;
    906 : FFFFFFFF;
    907 : FFFFFFFF;
    908 : FFFFFFFF;
    909 : FFFFFFFF;
    90A : FFFFFFFF;
    90B : FFFFFFFF;
    90C : FFFFFFFF;
    90D : FFFFFFFF;
    90E : FFFFFFFF;
    90F : FFFFFFFF;
    910 : FFFFFFFF;
    911 : FFFFFFFF;
    912 : FFFFFFFF;
    913 : FFFFFFFF;
    914 : FFFFFFFF;
    915 : FFFFFFFF;
    916 : FFFFFFFF;
    917 : FFFFFFFF;
    918 : FFFFFFFF;
    919 : FFFFFFFF;
    91A : FFFFFFFF;
    91B : FFFFFFFF;
    91C : FFFFFFFF;
    91D : FFFFFFFF;
    91E : FFFFFFFF;
    91F : FFFFFFFF;
    920 : FFFFFFFF;
    921 : FFFFFFFF;
    922 : FFFFFFFF;
    923 : FFFFFFFF;
    924 : FFFFFFFF;
    925 : FFFFFFFF;
    926 : FFFFFFFF;
    927 : FFFFFFFF;
    928 : FFFFFFFF;
    929 : FFFFFFFF;
    92A : FFFFFFFF;
    92B : FFFFFFFF;
    92C : FFFFFFFF;
    92D : FFFFFFFF;
    92E : FFFFFFFF;
    92F : FFFFFFFF;
    930 : FFFFFFFF;
    931 : FFFFFFFF;
    932 : FFFFFFFF;
    933 : FFFFFFFF;
    934 : FFFFFFFF;
    935 : FFFFFFFF;
    936 : FFFFFFFF;
    937 : FFFFFFFF;
    938 : FFFFFFFF;
    939 : FFFFFFFF;
    93A : FFFFFFFF;
    93B : FFFFFFFF;
    93C : FFFFFFFF;
    93D : FFFFFFFF;
    93E : FFFFFFFF;
    93F : FFFFFFFF;
    940 : FFFFFFFF;
    941 : FFFFFFFF;
    942 : FFFFFFFF;
    943 : FFFFFFFF;
    944 : FFFFFFFF;
    945 : FFFFFFFF;
    946 : FFFFFFFF;
    947 : FFFFFFFF;
    948 : FFFFFFFF;
    949 : FFFFFFFF;
    94A : FFFFFFFF;
    94B : FFFFFFFF;
    94C : FFFFFFFF;
    94D : FFFFFFFF;
    94E : FFFFFFFF;
    94F : FFFFFFFF;
    950 : FFFFFFFF;
    951 : FFFFFFFF;
    952 : FFFFFFFF;
    953 : FFFFFFFF;
    954 : FFFFFFFF;
    955 : FFFFFFFF;
    956 : FFFFFFFF;
    957 : FFFFFFFF;
    958 : FFFFFFFF;
    959 : FFFFFFFF;
    95A : FFFFFFFF;
    95B : FFFFFFFF;
    95C : FFFFFFFF;
    95D : FFFFFFFF;
    95E : FFFFFFFF;
    95F : FFFFFFFF;
    960 : FFFFFFFF;
    961 : FFFFFFFF;
    962 : FFFFFFFF;
    963 : FFFFFFFF;
    964 : FFFFFFFF;
    965 : FFFFFFFF;
    966 : FFFFFFFF;
    967 : FFFFFFFF;
    968 : FFFFFFFF;
    969 : FFFFFFFF;
    96A : FFFFFFFF;
    96B : FFFFFFFF;
    96C : FFFFFFFF;
    96D : FFFFFFFF;
    96E : FFFFFFFF;
    96F : FFFFFFFF;
    970 : FFFFFFFF;
    971 : FFFFFFFF;
    972 : FFFFFFFF;
    973 : FFFFFFFF;
    974 : FFFFFFFF;
    975 : FFFFFFFF;
    976 : FFFFFFFF;
    977 : FFFFFFFF;
    978 : FFFFFFFF;
    979 : FFFFFFFF;
    97A : FFFFFFFF;
    97B : FFFFFFFF;
    97C : FFFFFFFF;
    97D : FFFFFFFF;
    97E : FFFFFFFF;
    97F : FFFFFFFF;
    980 : FFFFFFFF;
    981 : FFFFFFFF;
    982 : FFFFFFFF;
    983 : FFFFFFFF;
    984 : FFFFFFFF;
    985 : FFFFFFFF;
    986 : FFFFFFFF;
    987 : FFFFFFFF;
    988 : FFFFFFFF;
    989 : FFFFFFFF;
    98A : FFFFFFFF;
    98B : FFFFFFFF;
    98C : FFFFFFFF;
    98D : FFFFFFFF;
    98E : FFFFFFFF;
    98F : FFFFFFFF;
    990 : FFFFFFFF;
    991 : FFFFFFFF;
    992 : FFFFFFFF;
    993 : FFFFFFFF;
    994 : FFFFFFFF;
    995 : FFFFFFFF;
    996 : FFFFFFFF;
    997 : FFFFFFFF;
    998 : FFFFFFFF;
    999 : FFFFFFFF;
    99A : FFFFFFFF;
    99B : FFFFFFFF;
    99C : FFFFFFFF;
    99D : FFFFFFFF;
    99E : FFFFFFFF;
    99F : FFFFFFFF;
    9A0 : FFFFFFFF;
    9A1 : FFFFFFFF;
    9A2 : FFFFFFFF;
    9A3 : FFFFFFFF;
    9A4 : FFFFFFFF;
    9A5 : FFFFFFFF;
    9A6 : FFFFFFFF;
    9A7 : FFFFFFFF;
    9A8 : FFFFFFFF;
    9A9 : FFFFFFFF;
    9AA : FFFFFFFF;
    9AB : FFFFFFFF;
    9AC : FFFFFFFF;
    9AD : FFFFFFFF;
    9AE : FFFFFFFF;
    9AF : FFFFFFFF;
    9B0 : FFFFFFFF;
    9B1 : FFFFFFFF;
    9B2 : FFFFFFFF;
    9B3 : FFFFFFFF;
    9B4 : FFFFFFFF;
    9B5 : FFFFFFFF;
    9B6 : FFFFFFFF;
    9B7 : FFFFFFFF;
    9B8 : FFFFFFFF;
    9B9 : FFFFFFFF;
    9BA : FFFFFFFF;
    9BB : FFFFFFFF;
    9BC : FFFFFFFF;
    9BD : FFFFFFFF;
    9BE : FFFFFFFF;
    9BF : FFFFFFFF;
    9C0 : FFFFFFFF;
    9C1 : FFFFFFFF;
    9C2 : FFFFFFFF;
    9C3 : FFFFFFFF;
    9C4 : FFFFFFFF;
    9C5 : FFFFFFFF;
    9C6 : FFFFFFFF;
    9C7 : FFFFFFFF;
    9C8 : FFFFFFFF;
    9C9 : FFFFFFFF;
    9CA : FFFFFFFF;
    9CB : FFFFFFFF;
    9CC : FFFFFFFF;
    9CD : FFFFFFFF;
    9CE : FFFFFFFF;
    9CF : FFFFFFFF;
    9D0 : FFFFFFFF;
    9D1 : FFFFFFFF;
    9D2 : FFFFFFFF;
    9D3 : FFFFFFFF;
    9D4 : FFFFFFFF;
    9D5 : FFFFFFFF;
    9D6 : FFFFFFFF;
    9D7 : FFFFFFFF;
    9D8 : FFFFFFFF;
    9D9 : FFFFFFFF;
    9DA : FFFFFFFF;
    9DB : FFFFFFFF;
    9DC : FFFFFFFF;
    9DD : FFFFFFFF;
    9DE : FFFFFFFF;
    9DF : FFFFFFFF;
    9E0 : FFFFFFFF;
    9E1 : FFFFFFFF;
    9E2 : FFFFFFFF;
    9E3 : FFFFFFFF;
    9E4 : FFFFFFFF;
    9E5 : FFFFFFFF;
    9E6 : FFFFFFFF;
    9E7 : FFFFFFFF;
    9E8 : FFFFFFFF;
    9E9 : FFFFFFFF;
    9EA : FFFFFFFF;
    9EB : FFFFFFFF;
    9EC : FFFFFFFF;
    9ED : FFFFFFFF;
    9EE : FFFFFFFF;
    9EF : FFFFFFFF;
    9F0 : FFFFFFFF;
    9F1 : FFFFFFFF;
    9F2 : FFFFFFFF;
    9F3 : FFFFFFFF;
    9F4 : FFFFFFFF;
    9F5 : FFFFFFFF;
    9F6 : FFFFFFFF;
    9F7 : FFFFFFFF;
    9F8 : FFFFFFFF;
    9F9 : FFFFFFFF;
    9FA : FFFFFFFF;
    9FB : FFFFFFFF;
    9FC : FFFFFFFF;
    9FD : FFFFFFFF;
    9FE : FFFFFFFF;
    9FF : FFFFFFFF;
    A00 : FFFFFFFF;
    A01 : FFFFFFFF;
    A02 : FFFFFFFF;
    A03 : FFFFFFFF;
    A04 : FFFFFFFF;
    A05 : FFFFFFFF;
    A06 : FFFFFFFF;
    A07 : FFFFFFFF;
    A08 : FFFFFFFF;
    A09 : FFFFFFFF;
    A0A : FFFFFFFF;
    A0B : FFFFFFFF;
    A0C : FFFFFFFF;
    A0D : FFFFFFFF;
    A0E : FFFFFFFF;
    A0F : FFFFFFFF;
    A10 : FFFFFFFF;
    A11 : FFFFFFFF;
    A12 : FFFFFFFF;
    A13 : FFFFFFFF;
    A14 : FFFFFFFF;
    A15 : FFFFFFFF;
    A16 : FFFFFFFF;
    A17 : FFFFFFFF;
    A18 : FFFFFFFF;
    A19 : FFFFFFFF;
    A1A : FFFFFFFF;
    A1B : FFFFFFFF;
    A1C : FFFFFFFF;
    A1D : FFFFFFFF;
    A1E : FFFFFFFF;
    A1F : FFFFFFFF;
    A20 : FFFFFFFF;
    A21 : FFFFFFFF;
    A22 : FFFFFFFF;
    A23 : FFFFFFFF;
    A24 : FFFFFFFF;
    A25 : FFFFFFFF;
    A26 : FFFFFFFF;
    A27 : FFFFFFFF;
    A28 : FFFFFFFF;
    A29 : FFFFFFFF;
    A2A : FFFFFFFF;
    A2B : FFFFFFFF;
    A2C : FFFFFFFF;
    A2D : FFFFFFFF;
    A2E : FFFFFFFF;
    A2F : FFFFFFFF;
    A30 : FFFFFFFF;
    A31 : FFFFFFFF;
    A32 : FFFFFFFF;
    A33 : FFFFFFFF;
    A34 : FFFFFFFF;
    A35 : FFFFFFFF;
    A36 : FFFFFFFF;
    A37 : FFFFFFFF;
    A38 : FFFFFFFF;
    A39 : FFFFFFFF;
    A3A : FFFFFFFF;
    A3B : FFFFFFFF;
    A3C : FFFFFFFF;
    A3D : FFFFFFFF;
    A3E : FFFFFFFF;
    A3F : FFFFFFFF;
    A40 : FFFFFFFF;
    A41 : FFFFFFFF;
    A42 : FFFFFFFF;
    A43 : FFFFFFFF;
    A44 : FFFFFFFF;
    A45 : FFFFFFFF;
    A46 : FFFFFFFF;
    A47 : FFFFFFFF;
    A48 : FFFFFFFF;
    A49 : FFFFFFFF;
    A4A : FFFFFFFF;
    A4B : FFFFFFFF;
    A4C : FFFFFFFF;
    A4D : FFFFFFFF;
    A4E : FFFFFFFF;
    A4F : FFFFFFFF;
    A50 : FFFFFFFF;
    A51 : FFFFFFFF;
    A52 : FFFFFFFF;
    A53 : FFFFFFFF;
    A54 : FFFFFFFF;
    A55 : FFFFFFFF;
    A56 : FFFFFFFF;
    A57 : FFFFFFFF;
    A58 : FFFFFFFF;
    A59 : FFFFFFFF;
    A5A : FFFFFFFF;
    A5B : FFFFFFFF;
    A5C : FFFFFFFF;
    A5D : FFFFFFFF;
    A5E : FFFFFFFF;
    A5F : FFFFFFFF;
    A60 : FFFFFFFF;
    A61 : FFFFFFFF;
    A62 : FFFFFFFF;
    A63 : FFFFFFFF;
    A64 : FFFFFFFF;
    A65 : FFFFFFFF;
    A66 : FFFFFFFF;
    A67 : FFFFFFFF;
    A68 : FFFFFFFF;
    A69 : FFFFFFFF;
    A6A : FFFFFFFF;
    A6B : FFFFFFFF;
    A6C : FFFFFFFF;
    A6D : FFFFFFFF;
    A6E : FFFFFFFF;
    A6F : FFFFFFFF;
    A70 : FFFFFFFF;
    A71 : FFFFFFFF;
    A72 : FFFFFFFF;
    A73 : FFFFFFFF;
    A74 : FFFFFFFF;
    A75 : FFFFFFFF;
    A76 : FFFFFFFF;
    A77 : FFFFFFFF;
    A78 : FFFFFFFF;
    A79 : FFFFFFFF;
    A7A : FFFFFFFF;
    A7B : FFFFFFFF;
    A7C : FFFFFFFF;
    A7D : FFFFFFFF;
    A7E : FFFFFFFF;
    A7F : FFFFFFFF;
    A80 : FFFFFFFF;
    A81 : FFFFFFFF;
    A82 : FFFFFFFF;
    A83 : FFFFFFFF;
    A84 : FFFFFFFF;
    A85 : FFFFFFFF;
    A86 : FFFFFFFF;
    A87 : FFFFFFFF;
    A88 : FFFFFFFF;
    A89 : FFFFFFFF;
    A8A : FFFFFFFF;
    A8B : FFFFFFFF;
    A8C : FFFFFFFF;
    A8D : FFFFFFFF;
    A8E : FFFFFFFF;
    A8F : FFFFFFFF;
    A90 : FFFFFFFF;
    A91 : FFFFFFFF;
    A92 : FFFFFFFF;
    A93 : FFFFFFFF;
    A94 : FFFFFFFF;
    A95 : FFFFFFFF;
    A96 : FFFFFFFF;
    A97 : FFFFFFFF;
    A98 : FFFFFFFF;
    A99 : FFFFFFFF;
    A9A : FFFFFFFF;
    A9B : FFFFFFFF;
    A9C : FFFFFFFF;
    A9D : FFFFFFFF;
    A9E : FFFFFFFF;
    A9F : FFFFFFFF;
    AA0 : FFFFFFFF;
    AA1 : FFFFFFFF;
    AA2 : FFFFFFFF;
    AA3 : FFFFFFFF;
    AA4 : FFFFFFFF;
    AA5 : FFFFFFFF;
    AA6 : FFFFFFFF;
    AA7 : FFFFFFFF;
    AA8 : FFFFFFFF;
    AA9 : FFFFFFFF;
    AAA : FFFFFFFF;
    AAB : FFFFFFFF;
    AAC : FFFFFFFF;
    AAD : FFFFFFFF;
    AAE : FFFFFFFF;
    AAF : FFFFFFFF;
    AB0 : FFFFFFFF;
    AB1 : FFFFFFFF;
    AB2 : FFFFFFFF;
    AB3 : FFFFFFFF;
    AB4 : FFFFFFFF;
    AB5 : FFFFFFFF;
    AB6 : FFFFFFFF;
    AB7 : FFFFFFFF;
    AB8 : FFFFFFFF;
    AB9 : FFFFFFFF;
    ABA : FFFFFFFF;
    ABB : FFFFFFFF;
    ABC : FFFFFFFF;
    ABD : FFFFFFFF;
    ABE : FFFFFFFF;
    ABF : FFFFFFFF;
    AC0 : FFFFFFFF;
    AC1 : FFFFFFFF;
    AC2 : FFFFFFFF;
    AC3 : FFFFFFFF;
    AC4 : FFFFFFFF;
    AC5 : FFFFFFFF;
    AC6 : FFFFFFFF;
    AC7 : FFFFFFFF;
    AC8 : FFFFFFFF;
    AC9 : FFFFFFFF;
    ACA : FFFFFFFF;
    ACB : FFFFFFFF;
    ACC : FFFFFFFF;
    ACD : FFFFFFFF;
    ACE : FFFFFFFF;
    ACF : FFFFFFFF;
    AD0 : FFFFFFFF;
    AD1 : FFFFFFFF;
    AD2 : FFFFFFFF;
    AD3 : FFFFFFFF;
    AD4 : FFFFFFFF;
    AD5 : FFFFFFFF;
    AD6 : FFFFFFFF;
    AD7 : FFFFFFFF;
    AD8 : FFFFFFFF;
    AD9 : FFFFFFFF;
    ADA : FFFFFFFF;
    ADB : FFFFFFFF;
    ADC : FFFFFFFF;
    ADD : FFFFFFFF;
    ADE : FFFFFFFF;
    ADF : FFFFFFFF;
    AE0 : FFFFFFFF;
    AE1 : FFFFFFFF;
    AE2 : FFFFFFFF;
    AE3 : FFFFFFFF;
    AE4 : FFFFFFFF;
    AE5 : FFFFFFFF;
    AE6 : FFFFFFFF;
    AE7 : FFFFFFFF;
    AE8 : FFFFFFFF;
    AE9 : FFFFFFFF;
    AEA : FFFFFFFF;
    AEB : FFFFFFFF;
    AEC : FFFFFFFF;
    AED : FFFFFFFF;
    AEE : FFFFFFFF;
    AEF : FFFFFFFF;
    AF0 : FFFFFFFF;
    AF1 : FFFFFFFF;
    AF2 : FFFFFFFF;
    AF3 : FFFFFFFF;
    AF4 : FFFFFFFF;
    AF5 : FFFFFFFF;
    AF6 : FFFFFFFF;
    AF7 : FFFFFFFF;
    AF8 : FFFFFFFF;
    AF9 : FFFFFFFF;
    AFA : FFFFFFFF;
    AFB : FFFFFFFF;
    AFC : FFFFFFFF;
    AFD : FFFFFFFF;
    AFE : FFFFFFFF;
    AFF : FFFFFFFF;
    B00 : FFFFFFFF;
    B01 : FFFFFFFF;
    B02 : FFFFFFFF;
    B03 : FFFFFFFF;
    B04 : FFFFFFFF;
    B05 : FFFFFFFF;
    B06 : FFFFFFFF;
    B07 : FFFFFFFF;
    B08 : FFFFFFFF;
    B09 : FFFFFFFF;
    B0A : FFFFFFFF;
    B0B : FFFFFFFF;
    B0C : FFFFFFFF;
    B0D : FFFFFFFF;
    B0E : FFFFFFFF;
    B0F : FFFFFFFF;
    B10 : FFFFFFFF;
    B11 : FFFFFFFF;
    B12 : FFFFFFFF;
    B13 : FFFFFFFF;
    B14 : FFFFFFFF;
    B15 : FFFFFFFF;
    B16 : FFFFFFFF;
    B17 : FFFFFFFF;
    B18 : FFFFFFFF;
    B19 : FFFFFFFF;
    B1A : FFFFFFFF;
    B1B : FFFFFFFF;
    B1C : FFFFFFFF;
    B1D : FFFFFFFF;
    B1E : FFFFFFFF;
    B1F : FFFFFFFF;
    B20 : FFFFFFFF;
    B21 : FFFFFFFF;
    B22 : FFFFFFFF;
    B23 : FFFFFFFF;
    B24 : FFFFFFFF;
    B25 : FFFFFFFF;
    B26 : FFFFFFFF;
    B27 : FFFFFFFF;
    B28 : FFFFFFFF;
    B29 : FFFFFFFF;
    B2A : FFFFFFFF;
    B2B : FFFFFFFF;
    B2C : FFFFFFFF;
    B2D : FFFFFFFF;
    B2E : FFFFFFFF;
    B2F : FFFFFFFF;
    B30 : FFFFFFFF;
    B31 : FFFFFFFF;
    B32 : FFFFFFFF;
    B33 : FFFFFFFF;
    B34 : FFFFFFFF;
    B35 : FFFFFFFF;
    B36 : FFFFFFFF;
    B37 : FFFFFFFF;
    B38 : FFFFFFFF;
    B39 : FFFFFFFF;
    B3A : FFFFFFFF;
    B3B : FFFFFFFF;
    B3C : FFFFFFFF;
    B3D : FFFFFFFF;
    B3E : FFFFFFFF;
    B3F : FFFFFFFF;
    B40 : FFFFFFFF;
    B41 : FFFFFFFF;
    B42 : FFFFFFFF;
    B43 : FFFFFFFF;
    B44 : FFFFFFFF;
    B45 : FFFFFFFF;
    B46 : FFFFFFFF;
    B47 : FFFFFFFF;
    B48 : FFFFFFFF;
    B49 : FFFFFFFF;
    B4A : FFFFFFFF;
    B4B : FFFFFFFF;
    B4C : FFFFFFFF;
    B4D : FFFFFFFF;
    B4E : FFFFFFFF;
    B4F : FFFFFFFF;
    B50 : FFFFFFFF;
    B51 : FFFFFFFF;
    B52 : FFFFFFFF;
    B53 : FFFFFFFF;
    B54 : FFFFFFFF;
    B55 : FFFFFFFF;
    B56 : FFFFFFFF;
    B57 : FFFFFFFF;
    B58 : FFFFFFFF;
    B59 : FFFFFFFF;
    B5A : FFFFFFFF;
    B5B : FFFFFFFF;
    B5C : FFFFFFFF;
    B5D : FFFFFFFF;
    B5E : FFFFFFFF;
    B5F : FFFFFFFF;
    B60 : FFFFFFFF;
    B61 : FFFFFFFF;
    B62 : FFFFFFFF;
    B63 : FFFFFFFF;
    B64 : FFFFFFFF;
    B65 : FFFFFFFF;
    B66 : FFFFFFFF;
    B67 : FFFFFFFF;
    B68 : FFFFFFFF;
    B69 : FFFFFFFF;
    B6A : FFFFFFFF;
    B6B : FFFFFFFF;
    B6C : FFFFFFFF;
    B6D : FFFFFFFF;
    B6E : FFFFFFFF;
    B6F : FFFFFFFF;
    B70 : FFFFFFFF;
    B71 : FFFFFFFF;
    B72 : FFFFFFFF;
    B73 : FFFFFFFF;
    B74 : FFFFFFFF;
    B75 : FFFFFFFF;
    B76 : FFFFFFFF;
    B77 : FFFFFFFF;
    B78 : FFFFFFFF;
    B79 : FFFFFFFF;
    B7A : FFFFFFFF;
    B7B : FFFFFFFF;
    B7C : FFFFFFFF;
    B7D : FFFFFFFF;
    B7E : FFFFFFFF;
    B7F : FFFFFFFF;
    B80 : FFFFFFFF;
    B81 : FFFFFFFF;
    B82 : FFFFFFFF;
    B83 : FFFFFFFF;
    B84 : FFFFFFFF;
    B85 : FFFFFFFF;
    B86 : FFFFFFFF;
    B87 : FFFFFFFF;
    B88 : FFFFFFFF;
    B89 : FFFFFFFF;
    B8A : FFFFFFFF;
    B8B : FFFFFFFF;
    B8C : FFFFFFFF;
    B8D : FFFFFFFF;
    B8E : FFFFFFFF;
    B8F : FFFFFFFF;
    B90 : FFFFFFFF;
    B91 : FFFFFFFF;
    B92 : FFFFFFFF;
    B93 : FFFFFFFF;
    B94 : FFFFFFFF;
    B95 : FFFFFFFF;
    B96 : FFFFFFFF;
    B97 : FFFFFFFF;
    B98 : FFFFFFFF;
    B99 : FFFFFFFF;
    B9A : FFFFFFFF;
    B9B : FFFFFFFF;
    B9C : FFFFFFFF;
    B9D : FFFFFFFF;
    B9E : FFFFFFFF;
    B9F : FFFFFFFF;
    BA0 : FFFFFFFF;
    BA1 : FFFFFFFF;
    BA2 : FFFFFFFF;
    BA3 : FFFFFFFF;
    BA4 : FFFFFFFF;
    BA5 : FFFFFFFF;
    BA6 : FFFFFFFF;
    BA7 : FFFFFFFF;
    BA8 : FFFFFFFF;
    BA9 : FFFFFFFF;
    BAA : FFFFFFFF;
    BAB : FFFFFFFF;
    BAC : FFFFFFFF;
    BAD : FFFFFFFF;
    BAE : FFFFFFFF;
    BAF : FFFFFFFF;
    BB0 : FFFFFFFF;
    BB1 : FFFFFFFF;
    BB2 : FFFFFFFF;
    BB3 : FFFFFFFF;
    BB4 : FFFFFFFF;
    BB5 : FFFFFFFF;
    BB6 : FFFFFFFF;
    BB7 : FFFFFFFF;
    BB8 : FFFFFFFF;
    BB9 : FFFFFFFF;
    BBA : FFFFFFFF;
    BBB : FFFFFFFF;
    BBC : FFFFFFFF;
    BBD : FFFFFFFF;
    BBE : FFFFFFFF;
    BBF : FFFFFFFF;
    BC0 : FFFFFFFF;
    BC1 : FFFFFFFF;
    BC2 : FFFFFFFF;
    BC3 : FFFFFFFF;
    BC4 : FFFFFFFF;
    BC5 : FFFFFFFF;
    BC6 : FFFFFFFF;
    BC7 : FFFFFFFF;
    BC8 : FFFFFFFF;
    BC9 : FFFFFFFF;
    BCA : FFFFFFFF;
    BCB : FFFFFFFF;
    BCC : FFFFFFFF;
    BCD : FFFFFFFF;
    BCE : FFFFFFFF;
    BCF : FFFFFFFF;
    BD0 : FFFFFFFF;
    BD1 : FFFFFFFF;
    BD2 : FFFFFFFF;
    BD3 : FFFFFFFF;
    BD4 : FFFFFFFF;
    BD5 : FFFFFFFF;
    BD6 : FFFFFFFF;
    BD7 : FFFFFFFF;
    BD8 : FFFFFFFF;
    BD9 : FFFFFFFF;
    BDA : FFFFFFFF;
    BDB : FFFFFFFF;
    BDC : FFFFFFFF;
    BDD : FFFFFFFF;
    BDE : FFFFFFFF;
    BDF : FFFFFFFF;
    BE0 : FFFFFFFF;
    BE1 : FFFFFFFF;
    BE2 : FFFFFFFF;
    BE3 : FFFFFFFF;
    BE4 : FFFFFFFF;
    BE5 : FFFFFFFF;
    BE6 : FFFFFFFF;
    BE7 : FFFFFFFF;
    BE8 : FFFFFFFF;
    BE9 : FFFFFFFF;
    BEA : FFFFFFFF;
    BEB : FFFFFFFF;
    BEC : FFFFFFFF;
    BED : FFFFFFFF;
    BEE : FFFFFFFF;
    BEF : FFFFFFFF;
    BF0 : FFFFFFFF;
    BF1 : FFFFFFFF;
    BF2 : FFFFFFFF;
    BF3 : FFFFFFFF;
    BF4 : FFFFFFFF;
    BF5 : FFFFFFFF;
    BF6 : FFFFFFFF;
    BF7 : FFFFFFFF;
    BF8 : FFFFFFFF;
    BF9 : FFFFFFFF;
    BFA : FFFFFFFF;
    BFB : FFFFFFFF;
    BFC : FFFFFFFF;
    BFD : FFFFFFFF;
    BFE : FFFFFFFF;
    BFF : FFFFFFFF;
    C00 : FFFFFFFF;
    C01 : FFFFFFFF;
    C02 : FFFFFFFF;
    C03 : FFFFFFFF;
    C04 : FFFFFFFF;
    C05 : FFFFFFFF;
    C06 : FFFFFFFF;
    C07 : FFFFFFFF;
    C08 : FFFFFFFF;
    C09 : FFFFFFFF;
    C0A : FFFFFFFF;
    C0B : FFFFFFFF;
    C0C : FFFFFFFF;
    C0D : FFFFFFFF;
    C0E : FFFFFFFF;
    C0F : FFFFFFFF;
    C10 : FFFFFFFF;
    C11 : FFFFFFFF;
    C12 : FFFFFFFF;
    C13 : FFFFFFFF;
    C14 : FFFFFFFF;
    C15 : FFFFFFFF;
    C16 : FFFFFFFF;
    C17 : FFFFFFFF;
    C18 : FFFFFFFF;
    C19 : FFFFFFFF;
    C1A : FFFFFFFF;
    C1B : FFFFFFFF;
    C1C : FFFFFFFF;
    C1D : FFFFFFFF;
    C1E : FFFFFFFF;
    C1F : FFFFFFFF;
    C20 : FFFFFFFF;
    C21 : FFFFFFFF;
    C22 : FFFFFFFF;
    C23 : FFFFFFFF;
    C24 : FFFFFFFF;
    C25 : FFFFFFFF;
    C26 : FFFFFFFF;
    C27 : FFFFFFFF;
    C28 : FFFFFFFF;
    C29 : FFFFFFFF;
    C2A : FFFFFFFF;
    C2B : FFFFFFFF;
    C2C : FFFFFFFF;
    C2D : FFFFFFFF;
    C2E : FFFFFFFF;
    C2F : FFFFFFFF;
    C30 : FFFFFFFF;
    C31 : FFFFFFFF;
    C32 : FFFFFFFF;
    C33 : FFFFFFFF;
    C34 : FFFFFFFF;
    C35 : FFFFFFFF;
    C36 : FFFFFFFF;
    C37 : FFFFFFFF;
    C38 : FFFFFFFF;
    C39 : FFFFFFFF;
    C3A : FFFFFFFF;
    C3B : FFFFFFFF;
    C3C : FFFFFFFF;
    C3D : FFFFFFFF;
    C3E : FFFFFFFF;
    C3F : FFFFFFFF;
    C40 : FFFFFFFF;
    C41 : FFFFFFFF;
    C42 : FFFFFFFF;
    C43 : FFFFFFFF;
    C44 : FFFFFFFF;
    C45 : FFFFFFFF;
    C46 : FFFFFFFF;
    C47 : FFFFFFFF;
    C48 : FFFFFFFF;
    C49 : FFFFFFFF;
    C4A : FFFFFFFF;
    C4B : FFFFFFFF;
    C4C : FFFFFFFF;
    C4D : FFFFFFFF;
    C4E : FFFFFFFF;
    C4F : FFFFFFFF;
    C50 : FFFFFFFF;
    C51 : FFFFFFFF;
    C52 : FFFFFFFF;
    C53 : FFFFFFFF;
    C54 : FFFFFFFF;
    C55 : FFFFFFFF;
    C56 : FFFFFFFF;
    C57 : FFFFFFFF;
    C58 : FFFFFFFF;
    C59 : FFFFFFFF;
    C5A : FFFFFFFF;
    C5B : FFFFFFFF;
    C5C : FFFFFFFF;
    C5D : FFFFFFFF;
    C5E : FFFFFFFF;
    C5F : FFFFFFFF;
    C60 : FFFFFFFF;
    C61 : FFFFFFFF;
    C62 : FFFFFFFF;
    C63 : FFFFFFFF;
    C64 : FFFFFFFF;
    C65 : FFFFFFFF;
    C66 : FFFFFFFF;
    C67 : FFFFFFFF;
    C68 : FFFFFFFF;
    C69 : FFFFFFFF;
    C6A : FFFFFFFF;
    C6B : FFFFFFFF;
    C6C : FFFFFFFF;
    C6D : FFFFFFFF;
    C6E : FFFFFFFF;
    C6F : FFFFFFFF;
    C70 : FFFFFFFF;
    C71 : FFFFFFFF;
    C72 : FFFFFFFF;
    C73 : FFFFFFFF;
    C74 : FFFFFFFF;
    C75 : FFFFFFFF;
    C76 : FFFFFFFF;
    C77 : FFFFFFFF;
    C78 : FFFFFFFF;
    C79 : FFFFFFFF;
    C7A : FFFFFFFF;
    C7B : FFFFFFFF;
    C7C : FFFFFFFF;
    C7D : FFFFFFFF;
    C7E : FFFFFFFF;
    C7F : FFFFFFFF;
    C80 : FFFFFFFF;
    C81 : FFFFFFFF;
    C82 : FFFFFFFF;
    C83 : FFFFFFFF;
    C84 : FFFFFFFF;
    C85 : FFFFFFFF;
    C86 : FFFFFFFF;
    C87 : FFFFFFFF;
    C88 : FFFFFFFF;
    C89 : FFFFFFFF;
    C8A : FFFFFFFF;
    C8B : FFFFFFFF;
    C8C : FFFFFFFF;
    C8D : FFFFFFFF;
    C8E : FFFFFFFF;
    C8F : FFFFFFFF;
    C90 : FFFFFFFF;
    C91 : FFFFFFFF;
    C92 : FFFFFFFF;
    C93 : FFFFFFFF;
    C94 : FFFFFFFF;
    C95 : FFFFFFFF;
    C96 : FFFFFFFF;
    C97 : FFFFFFFF;
    C98 : FFFFFFFF;
    C99 : FFFFFFFF;
    C9A : FFFFFFFF;
    C9B : FFFFFFFF;
    C9C : FFFFFFFF;
    C9D : FFFFFFFF;
    C9E : FFFFFFFF;
    C9F : FFFFFFFF;
    CA0 : FFFFFFFF;
    CA1 : FFFFFFFF;
    CA2 : FFFFFFFF;
    CA3 : FFFFFFFF;
    CA4 : FFFFFFFF;
    CA5 : FFFFFFFF;
    CA6 : FFFFFFFF;
    CA7 : FFFFFFFF;
    CA8 : FFFFFFFF;
    CA9 : FFFFFFFF;
    CAA : FFFFFFFF;
    CAB : FFFFFFFF;
    CAC : FFFFFFFF;
    CAD : FFFFFFFF;
    CAE : FFFFFFFF;
    CAF : FFFFFFFF;
    CB0 : FFFFFFFF;
    CB1 : FFFFFFFF;
    CB2 : FFFFFFFF;
    CB3 : FFFFFFFF;
    CB4 : FFFFFFFF;
    CB5 : FFFFFFFF;
    CB6 : FFFFFFFF;
    CB7 : FFFFFFFF;
    CB8 : FFFFFFFF;
    CB9 : FFFFFFFF;
    CBA : FFFFFFFF;
    CBB : FFFFFFFF;
    CBC : FFFFFFFF;
    CBD : FFFFFFFF;
    CBE : FFFFFFFF;
    CBF : FFFFFFFF;
    CC0 : FFFFFFFF;
    CC1 : FFFFFFFF;
    CC2 : FFFFFFFF;
    CC3 : FFFFFFFF;
    CC4 : FFFFFFFF;
    CC5 : FFFFFFFF;
    CC6 : FFFFFFFF;
    CC7 : FFFFFFFF;
    CC8 : FFFFFFFF;
    CC9 : FFFFFFFF;
    CCA : FFFFFFFF;
    CCB : FFFFFFFF;
    CCC : FFFFFFFF;
    CCD : FFFFFFFF;
    CCE : FFFFFFFF;
    CCF : FFFFFFFF;
    CD0 : FFFFFFFF;
    CD1 : FFFFFFFF;
    CD2 : FFFFFFFF;
    CD3 : FFFFFFFF;
    CD4 : FFFFFFFF;
    CD5 : FFFFFFFF;
    CD6 : FFFFFFFF;
    CD7 : FFFFFFFF;
    CD8 : FFFFFFFF;
    CD9 : FFFFFFFF;
    CDA : FFFFFFFF;
    CDB : FFFFFFFF;
    CDC : FFFFFFFF;
    CDD : FFFFFFFF;
    CDE : FFFFFFFF;
    CDF : FFFFFFFF;
    CE0 : FFFFFFFF;
    CE1 : FFFFFFFF;
    CE2 : FFFFFFFF;
    CE3 : FFFFFFFF;
    CE4 : FFFFFFFF;
    CE5 : FFFFFFFF;
    CE6 : FFFFFFFF;
    CE7 : FFFFFFFF;
    CE8 : FFFFFFFF;
    CE9 : FFFFFFFF;
    CEA : FFFFFFFF;
    CEB : FFFFFFFF;
    CEC : FFFFFFFF;
    CED : FFFFFFFF;
    CEE : FFFFFFFF;
    CEF : FFFFFFFF;
    CF0 : FFFFFFFF;
    CF1 : FFFFFFFF;
    CF2 : FFFFFFFF;
    CF3 : FFFFFFFF;
    CF4 : FFFFFFFF;
    CF5 : FFFFFFFF;
    CF6 : FFFFFFFF;
    CF7 : FFFFFFFF;
    CF8 : FFFFFFFF;
    CF9 : FFFFFFFF;
    CFA : FFFFFFFF;
    CFB : FFFFFFFF;
    CFC : FFFFFFFF;
    CFD : FFFFFFFF;
    CFE : FFFFFFFF;
    CFF : FFFFFFFF;
    D00 : FFFFFFFF;
    D01 : FFFFFFFF;
    D02 : FFFFFFFF;
    D03 : FFFFFFFF;
    D04 : FFFFFFFF;
    D05 : FFFFFFFF;
    D06 : FFFFFFFF;
    D07 : FFFFFFFF;
    D08 : FFFFFFFF;
    D09 : FFFFFFFF;
    D0A : FFFFFFFF;
    D0B : FFFFFFFF;
    D0C : FFFFFFFF;
    D0D : FFFFFFFF;
    D0E : FFFFFFFF;
    D0F : FFFFFFFF;
    D10 : FFFFFFFF;
    D11 : FFFFFFFF;
    D12 : FFFFFFFF;
    D13 : FFFFFFFF;
    D14 : FFFFFFFF;
    D15 : FFFFFFFF;
    D16 : FFFFFFFF;
    D17 : FFFFFFFF;
    D18 : FFFFFFFF;
    D19 : FFFFFFFF;
    D1A : FFFFFFFF;
    D1B : FFFFFFFF;
    D1C : FFFFFFFF;
    D1D : FFFFFFFF;
    D1E : FFFFFFFF;
    D1F : FFFFFFFF;
    D20 : FFFFFFFF;
    D21 : FFFFFFFF;
    D22 : FFFFFFFF;
    D23 : FFFFFFFF;
    D24 : FFFFFFFF;
    D25 : FFFFFFFF;
    D26 : FFFFFFFF;
    D27 : FFFFFFFF;
    D28 : FFFFFFFF;
    D29 : FFFFFFFF;
    D2A : FFFFFFFF;
    D2B : FFFFFFFF;
    D2C : FFFFFFFF;
    D2D : FFFFFFFF;
    D2E : FFFFFFFF;
    D2F : FFFFFFFF;
    D30 : FFFFFFFF;
    D31 : FFFFFFFF;
    D32 : FFFFFFFF;
    D33 : FFFFFFFF;
    D34 : FFFFFFFF;
    D35 : FFFFFFFF;
    D36 : FFFFFFFF;
    D37 : FFFFFFFF;
    D38 : FFFFFFFF;
    D39 : FFFFFFFF;
    D3A : FFFFFFFF;
    D3B : FFFFFFFF;
    D3C : FFFFFFFF;
    D3D : FFFFFFFF;
    D3E : FFFFFFFF;
    D3F : FFFFFFFF;
    D40 : FFFFFFFF;
    D41 : FFFFFFFF;
    D42 : FFFFFFFF;
    D43 : FFFFFFFF;
    D44 : FFFFFFFF;
    D45 : FFFFFFFF;
    D46 : FFFFFFFF;
    D47 : FFFFFFFF;
    D48 : FFFFFFFF;
    D49 : FFFFFFFF;
    D4A : FFFFFFFF;
    D4B : FFFFFFFF;
    D4C : FFFFFFFF;
    D4D : FFFFFFFF;
    D4E : FFFFFFFF;
    D4F : FFFFFFFF;
    D50 : FFFFFFFF;
    D51 : FFFFFFFF;
    D52 : FFFFFFFF;
    D53 : FFFFFFFF;
    D54 : FFFFFFFF;
    D55 : FFFFFFFF;
    D56 : FFFFFFFF;
    D57 : FFFFFFFF;
    D58 : FFFFFFFF;
    D59 : FFFFFFFF;
    D5A : FFFFFFFF;
    D5B : FFFFFFFF;
    D5C : FFFFFFFF;
    D5D : FFFFFFFF;
    D5E : FFFFFFFF;
    D5F : FFFFFFFF;
    D60 : FFFFFFFF;
    D61 : FFFFFFFF;
    D62 : FFFFFFFF;
    D63 : FFFFFFFF;
    D64 : FFFFFFFF;
    D65 : FFFFFFFF;
    D66 : FFFFFFFF;
    D67 : FFFFFFFF;
    D68 : FFFFFFFF;
    D69 : FFFFFFFF;
    D6A : FFFFFFFF;
    D6B : FFFFFFFF;
    D6C : FFFFFFFF;
    D6D : FFFFFFFF;
    D6E : FFFFFFFF;
    D6F : FFFFFFFF;
    D70 : FFFFFFFF;
    D71 : FFFFFFFF;
    D72 : FFFFFFFF;
    D73 : FFFFFFFF;
    D74 : FFFFFFFF;
    D75 : FFFFFFFF;
    D76 : FFFFFFFF;
    D77 : FFFFFFFF;
    D78 : FFFFFFFF;
    D79 : FFFFFFFF;
    D7A : FFFFFFFF;
    D7B : FFFFFFFF;
    D7C : FFFFFFFF;
    D7D : FFFFFFFF;
    D7E : FFFFFFFF;
    D7F : FFFFFFFF;
    D80 : FFFFFFFF;
    D81 : FFFFFFFF;
    D82 : FFFFFFFF;
    D83 : FFFFFFFF;
    D84 : FFFFFFFF;
    D85 : FFFFFFFF;
    D86 : FFFFFFFF;
    D87 : FFFFFFFF;
    D88 : FFFFFFFF;
    D89 : FFFFFFFF;
    D8A : FFFFFFFF;
    D8B : FFFFFFFF;
    D8C : FFFFFFFF;
    D8D : FFFFFFFF;
    D8E : FFFFFFFF;
    D8F : FFFFFFFF;
    D90 : FFFFFFFF;
    D91 : FFFFFFFF;
    D92 : FFFFFFFF;
    D93 : FFFFFFFF;
    D94 : FFFFFFFF;
    D95 : FFFFFFFF;
    D96 : FFFFFFFF;
    D97 : FFFFFFFF;
    D98 : FFFFFFFF;
    D99 : FFFFFFFF;
    D9A : FFFFFFFF;
    D9B : FFFFFFFF;
    D9C : FFFFFFFF;
    D9D : FFFFFFFF;
    D9E : FFFFFFFF;
    D9F : FFFFFFFF;
    DA0 : FFFFFFFF;
    DA1 : FFFFFFFF;
    DA2 : FFFFFFFF;
    DA3 : FFFFFFFF;
    DA4 : FFFFFFFF;
    DA5 : FFFFFFFF;
    DA6 : FFFFFFFF;
    DA7 : FFFFFFFF;
    DA8 : FFFFFFFF;
    DA9 : FFFFFFFF;
    DAA : FFFFFFFF;
    DAB : FFFFFFFF;
    DAC : FFFFFFFF;
    DAD : FFFFFFFF;
    DAE : FFFFFFFF;
    DAF : FFFFFFFF;
    DB0 : FFFFFFFF;
    DB1 : FFFFFFFF;
    DB2 : FFFFFFFF;
    DB3 : FFFFFFFF;
    DB4 : FFFFFFFF;
    DB5 : FFFFFFFF;
    DB6 : FFFFFFFF;
    DB7 : FFFFFFFF;
    DB8 : FFFFFFFF;
    DB9 : FFFFFFFF;
    DBA : FFFFFFFF;
    DBB : FFFFFFFF;
    DBC : FFFFFFFF;
    DBD : FFFFFFFF;
    DBE : FFFFFFFF;
    DBF : FFFFFFFF;
    DC0 : FFFFFFFF;
    DC1 : FFFFFFFF;
    DC2 : FFFFFFFF;
    DC3 : FFFFFFFF;
    DC4 : FFFFFFFF;
    DC5 : FFFFFFFF;
    DC6 : FFFFFFFF;
    DC7 : FFFFFFFF;
    DC8 : FFFFFFFF;
    DC9 : FFFFFFFF;
    DCA : FFFFFFFF;
    DCB : FFFFFFFF;
    DCC : FFFFFFFF;
    DCD : FFFFFFFF;
    DCE : FFFFFFFF;
    DCF : FFFFFFFF;
    DD0 : FFFFFFFF;
    DD1 : FFFFFFFF;
    DD2 : FFFFFFFF;
    DD3 : FFFFFFFF;
    DD4 : FFFFFFFF;
    DD5 : FFFFFFFF;
    DD6 : FFFFFFFF;
    DD7 : FFFFFFFF;
    DD8 : FFFFFFFF;
    DD9 : FFFFFFFF;
    DDA : FFFFFFFF;
    DDB : FFFFFFFF;
    DDC : FFFFFFFF;
    DDD : FFFFFFFF;
    DDE : FFFFFFFF;
    DDF : FFFFFFFF;
    DE0 : FFFFFFFF;
    DE1 : FFFFFFFF;
    DE2 : FFFFFFFF;
    DE3 : FFFFFFFF;
    DE4 : FFFFFFFF;
    DE5 : FFFFFFFF;
    DE6 : FFFFFFFF;
    DE7 : FFFFFFFF;
    DE8 : FFFFFFFF;
    DE9 : FFFFFFFF;
    DEA : FFFFFFFF;
    DEB : FFFFFFFF;
    DEC : FFFFFFFF;
    DED : FFFFFFFF;
    DEE : FFFFFFFF;
    DEF : FFFFFFFF;
    DF0 : FFFFFFFF;
    DF1 : FFFFFFFF;
    DF2 : FFFFFFFF;
    DF3 : FFFFFFFF;
    DF4 : FFFFFFFF;
    DF5 : FFFFFFFF;
    DF6 : FFFFFFFF;
    DF7 : FFFFFFFF;
    DF8 : FFFFFFFF;
    DF9 : FFFFFFFF;
    DFA : FFFFFFFF;
    DFB : FFFFFFFF;
    DFC : FFFFFFFF;
    DFD : FFFFFFFF;
    DFE : FFFFFFFF;
    DFF : FFFFFFFF;
    E00 : FFFFFFFF;
    E01 : FFFFFFFF;
    E02 : FFFFFFFF;
    E03 : FFFFFFFF;
    E04 : FFFFFFFF;
    E05 : FFFFFFFF;
    E06 : FFFFFFFF;
    E07 : FFFFFFFF;
    E08 : FFFFFFFF;
    E09 : FFFFFFFF;
    E0A : FFFFFFFF;
    E0B : FFFFFFFF;
    E0C : FFFFFFFF;
    E0D : FFFFFFFF;
    E0E : FFFFFFFF;
    E0F : FFFFFFFF;
    E10 : FFFFFFFF;
    E11 : FFFFFFFF;
    E12 : FFFFFFFF;
    E13 : FFFFFFFF;
    E14 : FFFFFFFF;
    E15 : FFFFFFFF;
    E16 : FFFFFFFF;
    E17 : FFFFFFFF;
    E18 : FFFFFFFF;
    E19 : FFFFFFFF;
    E1A : FFFFFFFF;
    E1B : FFFFFFFF;
    E1C : FFFFFFFF;
    E1D : FFFFFFFF;
    E1E : FFFFFFFF;
    E1F : FFFFFFFF;
    E20 : FFFFFFFF;
    E21 : FFFFFFFF;
    E22 : FFFFFFFF;
    E23 : FFFFFFFF;
    E24 : FFFFFFFF;
    E25 : FFFFFFFF;
    E26 : FFFFFFFF;
    E27 : FFFFFFFF;
    E28 : FFFFFFFF;
    E29 : FFFFFFFF;
    E2A : FFFFFFFF;
    E2B : FFFFFFFF;
    E2C : FFFFFFFF;
    E2D : FFFFFFFF;
    E2E : FFFFFFFF;
    E2F : FFFFFFFF;
    E30 : FFFFFFFF;
    E31 : FFFFFFFF;
    E32 : FFFFFFFF;
    E33 : FFFFFFFF;
    E34 : FFFFFFFF;
    E35 : FFFFFFFF;
    E36 : FFFFFFFF;
    E37 : FFFFFFFF;
    E38 : FFFFFFFF;
    E39 : FFFFFFFF;
    E3A : FFFFFFFF;
    E3B : FFFFFFFF;
    E3C : FFFFFFFF;
    E3D : FFFFFFFF;
    E3E : FFFFFFFF;
    E3F : FFFFFFFF;
    E40 : FFFFFFFF;
    E41 : FFFFFFFF;
    E42 : FFFFFFFF;
    E43 : FFFFFFFF;
    E44 : FFFFFFFF;
    E45 : FFFFFFFF;
    E46 : 000000FF;
    E47 : 00000000;
    E48 : 00000000;
    E49 : 00000000;
    E4A : 00000000;
    E4B : 00000000;
    E4C : 00000000;
    E4D : 00000000;
    E4E : 00000000;
    E4F : 00000000;
    E50 : 00000000;
    E51 : 00000000;
    E52 : 00000000;
    E53 : 00000000;
    E54 : 00000000;
    E55 : 00000000;
    E56 : 00000000;
    E57 : FFFFFFFF;
    E58 : FFFFFFFF;
    E59 : FFFFFFFF;
    E5A : FFFFFFFF;
    E5B : FFFFFFFF;
    E5C : FFFFFFFF;
    E5D : FFFFFFFF;
    E5E : FFFFFFFF;
    E5F : FFFFFFFF;
    E60 : FFFFFFFF;
    E61 : FFFFFFFF;
    E62 : FFFFFFFF;
    E63 : FFFFFFFF;
    E64 : FFFFFFFF;
    E65 : FFFFFFFF;
    E66 : FFFFFFFF;
    E67 : FFFFFFFF;
    E68 : FFFFFFFF;
    E69 : FFFFFFFF;
    E6A : FFFFFFFF;
    E6B : FFFFFFFF;
    E6C : FFFFFFFF;
    E6D : FFFFFFFF;
    E6E : FFFFFFFF;
    E6F : FFFFFFFF;
    E70 : FFFFFFFF;
    E71 : FFFFFFFF;
    E72 : FFFFFFFF;
    E73 : FFFFFFFF;
    E74 : FFFFFFFF;
    E75 : FFFFFFFF;
    E76 : FFFFFFFF;
    E77 : FFFFFFFF;
    E78 : FFFFFFFF;
    E79 : FFFFFFFF;
    E7A : FFFFFFFF;
    E7B : FFFFFFFF;
    E7C : FFFFFFFF;
    E7D : FFFFFFFF;
    E7E : FFFFFFFF;
    E7F : FFFFFFFF;
    E80 : FFFFFFFF;
    E81 : FFFFFFFF;
    E82 : FFFFFFFF;
    E83 : FFFFFFFF;
    E84 : FFFFFFFF;
    E85 : FFFFFFFF;
    E86 : FFFFFFFF;
    E87 : FFFFFFFF;
    E88 : FFFFFFFF;
    E89 : FFFFFFFF;
    E8A : FFFFFFFF;
    E8B : FFFFFFFF;
    E8C : FFFFFFFF;
    E8D : FFFFFFFF;
    E8E : FFFFFFFF;
    E8F : FFFFFFFF;
    E90 : FFFFFFFF;
    E91 : FFFFFFFF;
    E92 : FFFFFFFF;
    E93 : FFFFFFFF;
    E94 : FFFFFFFF;
    E95 : FFFFFFFF;
    E96 : FFFFFFFF;
    E97 : FFFFFFFF;
    E98 : FFFFFFFF;
    E99 : FFFFFFFF;
    E9A : FFFFFFFF;
    E9B : FFFFFFFF;
    E9C : FFFFFFFF;
    E9D : FFFFFFFF;
    E9E : FFFFFFFF;
    E9F : FFFFFFFF;
    EA0 : FFFFFFFF;
    EA1 : FFFFFFFF;
    EA2 : FFFFFFFF;
    EA3 : FFFFFFFF;
    EA4 : FFFFFFFF;
    EA5 : FFFFFFFF;
    EA6 : FFFFFFFF;
    EA7 : FFFFFFFF;
    EA8 : FFFFFFFF;
    EA9 : FFFFFFFF;
    EAA : FFFFFFFF;
    EAB : FFFFFFFF;
    EAC : FFFFFFFF;
    EAD : FFFFFFFF;
    EAE : FFFFFFFF;
    EAF : FFFFFFFF;
    EB0 : FFFFFFFF;
    EB1 : FFFFFFFF;
    EB2 : FFFFFFFF;
    EB3 : FFFFFFFF;
    EB4 : FFFFFFFF;
    EB5 : FFFFFFFF;
    EB6 : 00FFFFFF;
    EB7 : 00000000;
    EB8 : 00000000;
    EB9 : 00000000;
    EBA : 00000000;
    EBB : 00000000;
    EBC : 00000000;
    EBD : 00000000;
    EBE : 00000000;
    EBF : 00000000;
    EC0 : 00000000;
    EC1 : 00000000;
    EC2 : 00000000;
    EC3 : 00000000;
    EC4 : 00000000;
    EC5 : 00000000;
    EC6 : 00000000;
    EC7 : FF000000;
    EC8 : FFFFFFFF;
    EC9 : FFFFFFFF;
    ECA : FFFFFFFF;
    ECB : FFFFFFFF;
    ECC : FFFFFFFF;
    ECD : FFFFFFFF;
    ECE : FFFFFFFF;
    ECF : FFFFFFFF;
    ED0 : FFFFFFFF;
    ED1 : FFFFFFFF;
    ED2 : FFFFFFFF;
    ED3 : FFFFFFFF;
    ED4 : FFFFFFFF;
    ED5 : FFFFFFFF;
    ED6 : FFFFFFFF;
    ED7 : FFFFFFFF;
    ED8 : FFFFFFFF;
    ED9 : FFFFFFFF;
    EDA : FFFFFFFF;
    EDB : FFFFFFFF;
    EDC : FFFFFFFF;
    EDD : FFFFFFFF;
    EDE : FFFFFFFF;
    EDF : FFFFFFFF;
    EE0 : FFFFFFFF;
    EE1 : FFFFFFFF;
    EE2 : FFFFFFFF;
    EE3 : FFFFFFFF;
    EE4 : FFFFFFFF;
    EE5 : FFFFFFFF;
    EE6 : FFFFFFFF;
    EE7 : FFFFFFFF;
    EE8 : FFFFFFFF;
    EE9 : FFFFFFFF;
    EEA : FFFFFFFF;
    EEB : FFFFFFFF;
    EEC : FFFFFFFF;
    EED : FFFFFFFF;
    EEE : FFFFFFFF;
    EEF : FFFFFFFF;
    EF0 : FFFFFFFF;
    EF1 : FFFFFFFF;
    EF2 : FFFFFFFF;
    EF3 : FFFFFFFF;
    EF4 : FFFFFFFF;
    EF5 : FFFFFFFF;
    EF6 : FFFFFFFF;
    EF7 : FFFFFFFF;
    EF8 : FFFFFFFF;
    EF9 : FFFFFFFF;
    EFA : FFFFFFFF;
    EFB : FFFFFFFF;
    EFC : FFFFFFFF;
    EFD : FFFFFFFF;
    EFE : FFFFFFFF;
    EFF : FFFFFFFF;
    F00 : FFFFFFFF;
    F01 : FFFFFFFF;
    F02 : FFFFFFFF;
    F03 : FFFFFFFF;
    F04 : FFFFFFFF;
    F05 : FFFFFFFF;
    F06 : FFFFFFFF;
    F07 : FFFFFFFF;
    F08 : FFFFFFFF;
    F09 : FFFFFFFF;
    F0A : FFFFFFFF;
    F0B : FFFFFFFF;
    F0C : FFFFFFFF;
    F0D : FFFFFFFF;
    F0E : FFFFFFFF;
    F0F : FFFFFFFF;
    F10 : FFFFFFFF;
    F11 : FFFFFFFF;
    F12 : FFFFFFFF;
    F13 : FFFFFFFF;
    F14 : FFFFFFFF;
    F15 : FFFFFFFF;
    F16 : FFFFFFFF;
    F17 : FFFFFFFF;
    F18 : FFFFFFFF;
    F19 : FFFFFFFF;
    F1A : FFFFFFFF;
    F1B : FFFFFFFF;
    F1C : FFFFFFFF;
    F1D : FFFFFFFF;
    F1E : FFFFFFFF;
    F1F : FFFFFFFF;
    F20 : FFFFFFFF;
    F21 : FFFFFFFF;
    F22 : FFFFFFFF;
    F23 : FFFFFFFF;
    F24 : FFFFFFFF;
    F25 : FFFFFFFF;
    F26 : FFFFFFFF;
    F27 : 00000000;
    F28 : 00000000;
    F29 : 00000000;
    F2A : 00000000;
    F2B : 00000000;
    F2C : 00000000;
    F2D : 00000000;
    F2E : 00000000;
    F2F : 00000000;
    F30 : 00000000;
    F31 : 00000000;
    F32 : 00000000;
    F33 : 00000000;
    F34 : 00000000;
    F35 : 00000000;
    F36 : 00000000;
    F37 : 00000000;
    F38 : FFFFFF00;
    F39 : FFFFFFFF;
    F3A : FFFFFFFF;
    F3B : FFFFFFFF;
    F3C : FFFFFFFF;
    F3D : FFFFFFFF;
    F3E : FFFFFFFF;
    F3F : FFFFFFFF;
    F40 : FFFFFFFF;
    F41 : FFFFFFFF;
    F42 : FFFFFFFF;
    F43 : FFFFFFFF;
    F44 : FFFFFFFF;
    F45 : FFFFFFFF;
    F46 : FFFFFFFF;
    F47 : FFFFFFFF;
    F48 : FFFFFFFF;
    F49 : FFFFFFFF;
    F4A : FFFFFFFF;
    F4B : FFFFFFFF;
    F4C : FFFFFFFF;
    F4D : FFFFFFFF;
    F4E : FFFFFFFF;
    F4F : FFFFFFFF;
    F50 : FFFFFFFF;
    F51 : FFFFFFFF;
    F52 : FFFFFFFF;
    F53 : FFFFFFFF;
    F54 : FFFFFFFF;
    F55 : FFFFFFFF;
    F56 : FFFFFFFF;
    F57 : FFFFFFFF;
    F58 : FFFFFFFF;
    F59 : FFFFFFFF;
    F5A : FFFFFFFF;
    F5B : FFFFFFFF;
    F5C : FFFFFFFF;
    F5D : FFFFFFFF;
    F5E : FFFFFFFF;
    F5F : FFFFFFFF;
    F60 : FFFFFFFF;
    F61 : FFFFFFFF;
    F62 : FFFFFFFF;
    F63 : FFFFFFFF;
    F64 : FFFFFFFF;
    F65 : FFFFFFFF;
    F66 : FFFFFFFF;
    F67 : FFFFFFFF;
    F68 : FFFFFFFF;
    F69 : FFFFFFFF;
    F6A : FFFFFFFF;
    F6B : FFFFFFFF;
    F6C : FFFFFFFF;
    F6D : FFFFFFFF;
    F6E : FFFFFFFF;
    F6F : FFFFFFFF;
    F70 : FFFFFFFF;
    F71 : FFFFFFFF;
    F72 : FFFFFFFF;
    F73 : FFFFFFFF;
    F74 : FFFFFFFF;
    F75 : FFFFFFFF;
    F76 : FFFFFFFF;
    F77 : FFFFFFFF;
    F78 : FFFFFFFF;
    F79 : FFFFFFFF;
    F7A : FFFFFFFF;
    F7B : FFFFFFFF;
    F7C : FFFFFFFF;
    F7D : FFFFFFFF;
    F7E : FFFFFFFF;
    F7F : FFFFFFFF;
    F80 : FFFFFFFF;
    F81 : FFFFFFFF;
    F82 : FFFFFFFF;
    F83 : FFFFFFFF;
    F84 : FFFFFFFF;
    F85 : FFFFFFFF;
    F86 : FFFFFFFF;
    F87 : FFFFFFFF;
    F88 : FFFFFFFF;
    F89 : FFFFFFFF;
    F8A : FFFFFFFF;
    F8B : FFFFFFFF;
    F8C : FFFFFFFF;
    F8D : FFFFFFFF;
    F8E : FFFFFFFF;
    F8F : FFFFFFFF;
    F90 : FFFFFFFF;
    F91 : FFFFFFFF;
    F92 : FFFFFFFF;
    F93 : FFFFFFFF;
    F94 : FFFFFFFF;
    F95 : FFFFFFFF;
    F96 : FFFFFFFF;
    F97 : 0000FFFF;
    F98 : 00000000;
    F99 : 00000000;
    F9A : 00000000;
    F9B : 00000000;
    F9C : 00000000;
    F9D : 00000000;
    F9E : 00000000;
    F9F : 00000000;
    FA0 : 00000000;
    FA1 : 00000000;
    FA2 : 00000000;
    FA3 : 00000000;
    FA4 : 00000000;
    FA5 : 00000000;
    FA6 : 00000000;
    FA7 : 00000000;
    FA8 : FF000000;
    FA9 : FFFFFFFF;
    FAA : FFFFFFFF;
[...]
    1E3DC : 0;
    1E3DD : 0;
    1E3DE : 0;
    1E3DF : 0;
    1E3E0 : 0;
    1E3E1 : 0;
    1E3E2 : 0;
    1E3E3 : 0;
    1E3E4 : 0;
    1E3E5 : 0;
    1E3E6 : 0;
    1E3E7 : 0;
    1E3E8 : 0;
    1E3E9 : 0;
    1E3EA : 0;
    1E3EB : 0;
    1E3EC : 0;
    1E3ED : 0;
    1E3EE : 0;
    1E3EF : 0;
    1E3F0 : 0;
    1E3F1 : 0;
    1E3F2 : 0;
    1E3F3 : 0;
    1E3F4 : 0;
    1E3F5 : 0;
    1E3F6 : 0;
    1E3F7 : 0;
    1E3F8 : 0;
    1E3F9 : 0;
    1E3FA : 0;
    1E3FB : 0;
    1E3FC : 0;
    1E3FD : 0;
    1E3FE : 0;
    1E3FF : 0;
    1E400 : 0;
    1E401 : 0;
    1E402 : 0;
    1E403 : 0;
    1E404 : 0;
    1E405 : 0;
    1E406 : 0;
    1E407 : 0;
    1E408 : 0;
    1E409 : 0;
    1E40A : 0;
    1E40B : 0;
    1E40C : 0;
    1E40D : 0;
    1E40E : 0;
    1E40F : 0;
    1E410 : 0;
    1E411 : 0;
    1E412 : 0;
    1E413 : 0;
    1E414 : 0;
    1E415 : 0;
    1E416 : 0;
    1E417 : 0;
    1E418 : 0;
    1E419 : 0;
    1E41A : 0;
    1E41B : 0;
    1E41C : 0;
    1E41D : 0;
    1E41E : 0;
    1E41F : 0;
    1E420 : 0;
    1E421 : 0;
    1E422 : 0;
    1E423 : 0;
    1E424 : 0;
    1E425 : 0;
    1E426 : 0;
    1E427 : 0;
    1E428 : 0;
    1E429 : 0;
    1E42A : 0;
    1E42B : 0;
    1E42C : 0;
    1E42D : 0;
    1E42E : 0;
    1E42F : 0;
    1E430 : 0;
    1E431 : 0;
    1E432 : 0;
    1E433 : 0;
    1E434 : 0;
    1E435 : 0;
    1E436 : 0;
    1E437 : 0;
    1E438 : 0;
    1E439 : 0;
    1E43A : 0;
    1E43B : 0;
    1E43C : 0;
    1E43D : 0;
    1E43E : 0;
    1E43F : 0;
    1E440 : 0;
    1E441 : 0;
    1E442 : 0;
    1E443 : 0;
    1E444 : 0;
    1E445 : 0;
    1E446 : 0;
    1E447 : 0;
    1E448 : 0;
    1E449 : 0;
    1E44A : 0;
    1E44B : 0;
    1E44C : 0;
    1E44D : 0;
    1E44E : 0;
    1E44F : 0;
    1E450 : 0;
    1E451 : 0;
    1E452 : 0;
    1E453 : 0;
    1E454 : 0;
    1E455 : 0;
    1E456 : 0;
    1E457 : 0;
    1E458 : 0;
    1E459 : 0;
    1E45A : 0;
    1E45B : 0;
    1E45C : 0;
    1E45D : 0;
    1E45E : 0;
    1E45F : 0;
    1E460 : 0;
    1E461 : 0;
    1E462 : 0;
    1E463 : 0;
    1E464 : 0;
    1E465 : 0;
    1E466 : 0;
    1E467 : 0;
    1E468 : 0;
    1E469 : 0;
    1E46A : 0;
    1E46B : 0;
    1E46C : 0;
    1E46D : 0;
    1E46E : 0;
    1E46F : 0;
    1E470 : 0;
    1E471 : 0;
    1E472 : 0;
    1E473 : 0;
    1E474 : 0;
    1E475 : 0;
    1E476 : 0;
    1E477 : 0;
    1E478 : 0;
    1E479 : 0;
    1E47A : 0;
    1E47B : 0;
    1E47C : 0;
    1E47D : 0;
    1E47E : 0;
    1E47F : 0;
    1E480 : 0;
    1E481 : 0;
    1E482 : 0;
    1E483 : 0;
    1E484 : 0;
    1E485 : 0;
    1E486 : 0;
    1E487 : 0;
    1E488 : 0;
    1E489 : 0;
    1E48A : 0;
    1E48B : 0;
    1E48C : 0;
    1E48D : 0;
    1E48E : 0;
    1E48F : 0;
    1E490 : 0;
    1E491 : 0;
    1E492 : 0;
    1E493 : 0;
    1E494 : 0;
    1E495 : 0;
    1E496 : 0;
    1E497 : 0;
    1E498 : 0;
    1E499 : 0;
    1E49A : 0;
    1E49B : 0;
    1E49C : 0;
    1E49D : 0;
    1E49E : 0;
    1E49F : 0;
    1E4A0 : 0;
    1E4A1 : 0;
    1E4A2 : 0;
    1E4A3 : 0;
    1E4A4 : 0;
    1E4A5 : 0;
    1E4A6 : 0;
    1E4A7 : 0;
    1E4A8 : 0;
    1E4A9 : 0;
    1E4AA : 0;
    1E4AB : 0;
    1E4AC : 0;
    1E4AD : 0;
    1E4AE : 0;
    1E4AF : 0;
    1E4B0 : 0;
    1E4B1 : 0;
    1E4B2 : 0;
    1E4B3 : 0;
    1E4B4 : 0;
    1E4B5 : 0;
    1E4B6 : 0;
    1E4B7 : 0;
    1E4B8 : 0;
    1E4B9 : 0;
    1E4BA : 0;
    1E4BB : 0;
    1E4BC : 0;
    1E4BD : 0;
    1E4BE : 0;
    1E4BF : 0;
    1E4C0 : 0;
    1E4C1 : 0;
    1E4C2 : 0;
    1E4C3 : 0;
    1E4C4 : 0;
    1E4C5 : 0;
    1E4C6 : 0;
    1E4C7 : 0;
    1E4C8 : 0;
    1E4C9 : 0;
    1E4CA : 0;
    1E4CB : 0;
    1E4CC : 0;
    1E4CD : 0;
    1E4CE : 0;
    1E4CF : 0;
    1E4D0 : 0;
    1E4D1 : 0;
    1E4D2 : 0;
    1E4D3 : 0;
    1E4D4 : 0;
    1E4D5 : 0;
    1E4D6 : 0;
    1E4D7 : 0;
    1E4D8 : 0;
    1E4D9 : 0;
    1E4DA : 0;
    1E4DB : 0;
    1E4DC : 0;
    1E4DD : 0;
    1E4DE : 0;
    1E4DF : 0;
    1E4E0 : 0;
    1E4E1 : 0;
    1E4E2 : 0;
    1E4E3 : 0;
    1E4E4 : 0;
    1E4E5 : 0;
    1E4E6 : 0;
    1E4E7 : 0;
    1E4E8 : 0;
    1E4E9 : 0;
    1E4EA : 0;
    1E4EB : 0;
    1E4EC : 0;
    1E4ED : 0;
    1E4EE : 0;
    1E4EF : 0;
    1E4F0 : 0;
    1E4F1 : 0;
    1E4F2 : 0;
    1E4F3 : 0;
    1E4F4 : 0;
    1E4F5 : 0;
    1E4F6 : 0;
    1E4F7 : 0;
    1E4F8 : 0;
    1E4F9 : 0;
    1E4FA : 0;
    1E4FB : 0;
    1E4FC : 0;
    1E4FD : 0;
    1E4FE : 0;
    1E4FF : 0;
    1E500 : 0;
    1E501 : 0;
    1E502 : 0;
    1E503 : 0;
    1E504 : 0;
    1E505 : 0;
    1E506 : 0;
    1E507 : 0;
    1E508 : 0;
    1E509 : 0;
    1E50A : 0;
    1E50B : 0;
    1E50C : 0;
    1E50D : 0;
    1E50E : 0;
    1E50F : 0;
    1E510 : 0;
    1E511 : 0;
    1E512 : 0;
    1E513 : 0;
    1E514 : 0;
    1E515 : 0;
    1E516 : 0;
    1E517 : 0;
    1E518 : 0;
    1E519 : 0;
    1E51A : 0;
    1E51B : 0;
    1E51C : 0;
    1E51D : 0;
    1E51E : 0;
    1E51F : 0;
    1E520 : 0;
    1E521 : 0;
    1E522 : 0;
    1E523 : 0;
    1E524 : 0;
    1E525 : 0;
    1E526 : 0;
    1E527 : 0;
    1E528 : 0;
    1E529 : 0;
    1E52A : 0;
    1E52B : 0;
    1E52C : 0;
    1E52D : 0;
    1E52E : 0;
    1E52F : 0;
    1E530 : 0;
    1E531 : 0;
    1E532 : 0;
    1E533 : 0;
    1E534 : 0;
    1E535 : 0;
    1E536 : 0;
    1E537 : 0;
    1E538 : 0;
    1E539 : 0;
    1E53A : 0;
    1E53B : 0;
    1E53C : 0;
    1E53D : 0;
    1E53E : 0;
    1E53F : 0;
    1E540 : 0;
    1E541 : 0;
    1E542 : 0;
    1E543 : 0;
    1E544 : 0;
    1E545 : 0;
    1E546 : 0;
    1E547 : 0;
    1E548 : 0;
    1E549 : 0;
    1E54A : 0;
    1E54B : 0;
    1E54C : 0;
    1E54D : 0;
    1E54E : 0;
    1E54F : 0;
    1E550 : 0;
    1E551 : 0;
    1E552 : 0;
    1E553 : 0;
    1E554 : 0;
    1E555 : 0;
    1E556 : 0;
    1E557 : 0;
    1E558 : 0;
    1E559 : 0;
    1E55A : 0;
    1E55B : 0;
    1E55C : 0;
    1E55D : 0;
    1E55E : 0;
    1E55F : 0;
    1E560 : 0;
    1E561 : 0;
    1E562 : 0;
    1E563 : 0;
    1E564 : 0;
    1E565 : 0;
    1E566 : 0;
    1E567 : 0;
    1E568 : 0;
    1E569 : 0;
    1E56A : 0;
    1E56B : 0;
    1E56C : 0;
    1E56D : 0;
    1E56E : 0;
    1E56F : 0;
    1E570 : 0;
    1E571 : 0;
    1E572 : 0;
    1E573 : 0;
    1E574 : 0;
    1E575 : 0;
    1E576 : 0;
    1E577 : 0;
    1E578 : 0;
    1E579 : 0;
    1E57A : 0;
    1E57B : 0;
    1E57C : 0;
    1E57D : 0;
    1E57E : 0;
    1E57F : 0;
    1E580 : 0;
    1E581 : 0;
    1E582 : 0;
    1E583 : 0;
    1E584 : 0;
    1E585 : 0;
    1E586 : 0;
    1E587 : 0;
    1E588 : 0;
    1E589 : 0;
    1E58A : 0;
    1E58B : 0;
    1E58C : 0;
    1E58D : 0;
    1E58E : 0;
    1E58F : 0;
    1E590 : 0;
    1E591 : 0;
    1E592 : 0;
    1E593 : 0;
    1E594 : 0;
    1E595 : 0;
    1E596 : 0;
    1E597 : 0;
    1E598 : 0;
    1E599 : 0;
    1E59A : 0;
    1E59B : 0;
    1E59C : 0;
    1E59D : 0;
    1E59E : 0;
    1E59F : 0;
    1E5A0 : 0;
    1E5A1 : 0;
    1E5A2 : 0;
    1E5A3 : 0;
    1E5A4 : 0;
    1E5A5 : 0;
    1E5A6 : 0;
    1E5A7 : 0;
    1E5A8 : 0;
    1E5A9 : 0;
    1E5AA : 0;
    1E5AB : 0;
    1E5AC : 0;
    1E5AD : 0;
    1E5AE : 0;
    1E5AF : 0;
    1E5B0 : 0;
    1E5B1 : 0;
    1E5B2 : 0;
    1E5B3 : 0;
    1E5B4 : 0;
    1E5B5 : 0;
    1E5B6 : 0;
    1E5B7 : 0;
    1E5B8 : 0;
    1E5B9 : 0;
    1E5BA : 0;
    1E5BB : 0;
    1E5BC : 0;
    1E5BD : 0;
    1E5BE : 0;
    1E5BF : 0;
    1E5C0 : 0;
    1E5C1 : 0;
    1E5C2 : 0;
    1E5C3 : 0;
    1E5C4 : 0;
    1E5C5 : 0;
    1E5C6 : 0;
    1E5C7 : 0;
    1E5C8 : 0;
    1E5C9 : 0;
    1E5CA : 0;
    1E5CB : 0;
    1E5CC : 0;
    1E5CD : 0;
    1E5CE : 0;
    1E5CF : 0;
    1E5D0 : 0;
    1E5D1 : 0;
    1E5D2 : 0;
    1E5D3 : 0;
    1E5D4 : 0;
    1E5D5 : 0;
    1E5D6 : 0;
    1E5D7 : 0;
    1E5D8 : 0;
    1E5D9 : 0;
    1E5DA : 0;
    1E5DB : 0;
    1E5DC : 0;
    1E5DD : 0;
    1E5DE : 0;
    1E5DF : 0;
    1E5E0 : 0;
    1E5E1 : 0;
    1E5E2 : 0;
    1E5E3 : 0;
    1E5E4 : 0;
    1E5E5 : 0;
    1E5E6 : 0;
    1E5E7 : 0;
    1E5E8 : 0;
    1E5E9 : 0;
    1E5EA : 0;
    1E5EB : 0;
    1E5EC : 0;
    1E5ED : 0;
    1E5EE : 0;
    1E5EF : 0;
    1E5F0 : 0;
    1E5F1 : 0;
    1E5F2 : 0;
    1E5F3 : 0;
    1E5F4 : 0;
    1E5F5 : 0;
    1E5F6 : 0;
    1E5F7 : 0;
    1E5F8 : 0;
    1E5F9 : 0;
    1E5FA : 0;
    1E5FB : 0;
    1E5FC : 0;
    1E5FD : 0;
    1E5FE : 0;
    1E5FF : 0;
    1E600 : 0;
    1E601 : 0;
    1E602 : 0;
    1E603 : 0;
    1E604 : 0;
    1E605 : 0;
    1E606 : 0;
    1E607 : 0;
    1E608 : 0;
    1E609 : 0;
    1E60A : 0;
    1E60B : 0;
    1E60C : 0;
    1E60D : 0;
    1E60E : 0;
    1E60F : 0;
    1E610 : 0;
    1E611 : 0;
    1E612 : 0;
    1E613 : 0;
    1E614 : 0;
    1E615 : 0;
    1E616 : 0;
    1E617 : 0;
    1E618 : 0;
    1E619 : 0;
    1E61A : 0;
    1E61B : 0;
    1E61C : 0;
    1E61D : 0;
    1E61E : 0;
    1E61F : 0;
    1E620 : 0;
    1E621 : 0;
    1E622 : 0;
    1E623 : 0;
    1E624 : 0;
    1E625 : 0;
    1E626 : 0;
    1E627 : 0;
    1E628 : 0;
    1E629 : 0;
    1E62A : 0;
    1E62B : 0;
    1E62C : 0;
    1E62D : 0;
    1E62E : 0;
    1E62F : 0;
    1E630 : 0;
    1E631 : 0;
    1E632 : 0;
    1E633 : 0;
    1E634 : 0;
    1E635 : 0;
    1E636 : 0;
    1E637 : 0;
    1E638 : 0;
    1E639 : 0;
    1E63A : 0;
    1E63B : 0;
    1E63C : 0;
    1E63D : 0;
    1E63E : 0;
    1E63F : 0;
    1E640 : 0;
    1E641 : 0;
    1E642 : 0;
    1E643 : 0;
    1E644 : 0;
    1E645 : 0;
    1E646 : 0;
    1E647 : 0;
    1E648 : 0;
    1E649 : 0;
    1E64A : 0;
    1E64B : 0;
    1E64C : 0;
    1E64D : 0;
    1E64E : 0;
    1E64F : 0;
    1E650 : 0;
    1E651 : 0;
    1E652 : 0;
    1E653 : 0;
    1E654 : 0;
    1E655 : 0;
    1E656 : 0;
    1E657 : 0;
    1E658 : 0;
    1E659 : 0;
    1E65A : 0;
    1E65B : 0;
    1E65C : 0;
    1E65D : 0;
    1E65E : 0;
    1E65F : 0;
    1E660 : 0;
    1E661 : 0;
    1E662 : 0;
    1E663 : 0;
    1E664 : 0;
    1E665 : 0;
    1E666 : 0;
    1E667 : 0;
    1E668 : 0;
    1E669 : 0;
    1E66A : 0;
    1E66B : 0;
    1E66C : 0;
    1E66D : 0;
    1E66E : 0;
    1E66F : 0;
    1E670 : 0;
    1E671 : 0;
    1E672 : 0;
    1E673 : 0;
    1E674 : 0;
    1E675 : 0;
    1E676 : 0;
    1E677 : 0;
    1E678 : 0;
    1E679 : 0;
    1E67A : 0;
    1E67B : 0;
    1E67C : 0;
    1E67D : 0;
    1E67E : 0;
    1E67F : 0;
    1E680 : 0;
    1E681 : 0;
    1E682 : 0;
    1E683 : 0;
    1E684 : 0;
    1E685 : 0;
    1E686 : 0;
    1E687 : 0;
    1E688 : 0;
    1E689 : 0;
    1E68A : 0;
    1E68B : 0;
    1E68C : 0;
    1E68D : 0;
    1E68E : 0;
    1E68F : 0;
    1E690 : 0;
    1E691 : 0;
    1E692 : 0;
    1E693 : 0;
    1E694 : 0;
    1E695 : 0;
    1E696 : 0;
    1E697 : 0;
    1E698 : 0;
    1E699 : 0;
    1E69A : 0;
    1E69B : 0;
    1E69C : 0;
    1E69D : 0;
    1E69E : 0;
    1E69F : 0;
    1E6A0 : 0;
    1E6A1 : 0;
    1E6A2 : 0;
    1E6A3 : 0;
    1E6A4 : 0;
    1E6A5 : 0;
    1E6A6 : 0;
    1E6A7 : 0;
    1E6A8 : 0;
    1E6A9 : 0;
    1E6AA : 0;
    1E6AB : 0;
    1E6AC : 0;
    1E6AD : 0;
    1E6AE : 0;
    1E6AF : 0;
    1E6B0 : 0;
    1E6B1 : 0;
    1E6B2 : 0;
    1E6B3 : 0;
    1E6B4 : 0;
    1E6B5 : 0;
    1E6B6 : 0;
    1E6B7 : 0;
    1E6B8 : 0;
    1E6B9 : 0;
    1E6BA : 0;
    1E6BB : 0;
    1E6BC : 0;
    1E6BD : 0;
    1E6BE : 0;
    1E6BF : 0;
    1E6C0 : 0;
    1E6C1 : 0;
    1E6C2 : 0;
    1E6C3 : 0;
    1E6C4 : 0;
    1E6C5 : 0;
    1E6C6 : 0;
    1E6C7 : 0;
    1E6C8 : 0;
    1E6C9 : 0;
    1E6CA : 0;
    1E6CB : 0;
    1E6CC : 0;
    1E6CD : 0;
    1E6CE : 0;
    1E6CF : 0;
    1E6D0 : 0;
    1E6D1 : 0;
    1E6D2 : 0;
    1E6D3 : 0;
    1E6D4 : 0;
    1E6D5 : 0;
    1E6D6 : 0;
    1E6D7 : 0;
    1E6D8 : 0;
    1E6D9 : 0;
    1E6DA : 0;
    1E6DB : 0;
    1E6DC : 0;
    1E6DD : 0;
    1E6DE : 0;
    1E6DF : 0;
    1E6E0 : 0;
    1E6E1 : 0;
    1E6E2 : 0;
    1E6E3 : 0;
    1E6E4 : 0;
    1E6E5 : 0;
    1E6E6 : 0;
    1E6E7 : 0;
    1E6E8 : 0;
    1E6E9 : 0;
    1E6EA : 0;
    1E6EB : 0;
    1E6EC : 0;
    1E6ED : 0;
    1E6EE : 0;
    1E6EF : 0;
    1E6F0 : 0;
    1E6F1 : 0;
    1E6F2 : 0;
    1E6F3 : 0;
    1E6F4 : 0;
    1E6F5 : 0;
    1E6F6 : 0;
    1E6F7 : 0;
    1E6F8 : 0;
    1E6F9 : 0;
    1E6FA : 0;
    1E6FB : 0;
    1E6FC : 0;
    1E6FD : 0;
    1E6FE : 0;
    1E6FF : 0;
    1E700 : 0;
    1E701 : 0;
    1E702 : 0;
    1E703 : 0;
    1E704 : 0;
    1E705 : 0;
    1E706 : 0;
    1E707 : 0;
    1E708 : 0;
    1E709 : 0;
    1E70A : 0;
    1E70B : 0;
    1E70C : 0;
    1E70D : 0;
    1E70E : 0;
    1E70F : 0;
    1E710 : 0;
    1E711 : 0;
    1E712 : 0;
    1E713 : 0;
    1E714 : 0;
    1E715 : 0;
    1E716 : 0;
    1E717 : 0;
    1E718 : 0;
    1E719 : 0;
    1E71A : 0;
    1E71B : 0;
    1E71C : 0;
    1E71D : 0;
    1E71E : 0;
    1E71F : 0;
    1E720 : 0;
    1E721 : 0;
    1E722 : 0;
    1E723 : 0;
    1E724 : 0;
    1E725 : 0;
    1E726 : 0;
    1E727 : 0;
    1E728 : 0;
    1E729 : 0;
    1E72A : 0;
    1E72B : 0;
    1E72C : 0;
    1E72D : 0;
    1E72E : 0;
    1E72F : 0;
    1E730 : 0;
    1E731 : 0;
    1E732 : 0;
    1E733 : 0;
    1E734 : 0;
    1E735 : 0;
    1E736 : 0;
    1E737 : 0;
    1E738 : 0;
    1E739 : 0;
    1E73A : 0;
    1E73B : 0;
    1E73C : 0;
    1E73D : 0;
    1E73E : 0;
    1E73F : 0;
    1E740 : 0;
    1E741 : 0;
    1E742 : 0;
    1E743 : 0;
    1E744 : 0;
    1E745 : 0;
    1E746 : 0;
    1E747 : 0;
    1E748 : 0;
    1E749 : 0;
    1E74A : 0;
    1E74B : 0;
    1E74C : 0;
    1E74D : 0;
    1E74E : 0;
    1E74F : 0;
    1E750 : 0;
    1E751 : 0;
    1E752 : 0;
    1E753 : 0;
    1E754 : 0;
    1E755 : 0;
    1E756 : 0;
    1E757 : 0;
    1E758 : 0;
    1E759 : 0;
    1E75A : 0;
    1E75B : 0;
    1E75C : 0;
    1E75D : 0;
    1E75E : 0;
    1E75F : 0;
    1E760 : 0;
    1E761 : 0;
    1E762 : 0;
    1E763 : 0;
    1E764 : 0;
    1E765 : 0;
    1E766 : 0;
    1E767 : 0;
    1E768 : 0;
    1E769 : 0;
    1E76A : 0;
    1E76B : 0;
    1E76C : 0;
    1E76D : 0;
    1E76E : 0;
    1E76F : 0;
    1E770 : 0;
    1E771 : 0;
    1E772 : 0;
    1E773 : 0;
    1E774 : 0;
    1E775 : 0;
    1E776 : 0;
    1E777 : 0;
    1E778 : 0;
    1E779 : 0;
    1E77A : 0;
    1E77B : 0;
    1E77C : 0;
    1E77D : 0;
    1E77E : 0;
    1E77F : 0;
    1E780 : 0;
    1E781 : 0;
    1E782 : 0;
    1E783 : 0;
    1E784 : 0;
    1E785 : 0;
    1E786 : 0;
    1E787 : 0;
    1E788 : 0;
    1E789 : 0;
    1E78A : 0;
    1E78B : 0;
    1E78C : 0;
    1E78D : 0;
    1E78E : 0;
    1E78F : 0;
    1E790 : 0;
    1E791 : 0;
    1E792 : 0;
    1E793 : 0;
    1E794 : 0;
    1E795 : 0;
    1E796 : 0;
    1E797 : 0;
    1E798 : 0;
    1E799 : 0;
    1E79A : 0;
    1E79B : 0;
    1E79C : 0;
    1E79D : 0;
    1E79E : 0;
    1E79F : 0;
    1E7A0 : 0;
    1E7A1 : 0;
    1E7A2 : 0;
    1E7A3 : 0;
    1E7A4 : 0;
    1E7A5 : 0;
    1E7A6 : 0;
    1E7A7 : 0;
    1E7A8 : 0;
    1E7A9 : 0;
    1E7AA : 0;
    1E7AB : 0;
    1E7AC : 0;
    1E7AD : 0;
    1E7AE : 0;
    1E7AF : 0;
    1E7B0 : 0;
    1E7B1 : 0;
    1E7B2 : 0;
    1E7B3 : 0;
    1E7B4 : 0;
    1E7B5 : 0;
    1E7B6 : 0;
    1E7B7 : 0;
    1E7B8 : 0;
    1E7B9 : 0;
    1E7BA : 0;
    1E7BB : 0;
    1E7BC : 0;
    1E7BD : 0;
    1E7BE : 0;
    1E7BF : 0;
    1E7C0 : 0;
    1E7C1 : 0;
    1E7C2 : 0;
    1E7C3 : 0;
    1E7C4 : 0;
    1E7C5 : 0;
    1E7C6 : 0;
    1E7C7 : 0;
    1E7C8 : 0;
    1E7C9 : 0;
    1E7CA : 0;
    1E7CB : 0;
    1E7CC : 0;
    1E7CD : 0;
    1E7CE : 0;
    1E7CF : 0;
    1E7D0 : 0;
    1E7D1 : 0;
    1E7D2 : 0;
    1E7D3 : 0;
    1E7D4 : 0;
    1E7D5 : 0;
    1E7D6 : 0;
    1E7D7 : 0;
    1E7D8 : 0;
    1E7D9 : 0;
    1E7DA : 0;
    1E7DB : 0;
    1E7DC : 0;
    1E7DD : 0;
    1E7DE : 0;
    1E7DF : 0;
    1E7E0 : 0;
    1E7E1 : 0;
    1E7E2 : 0;
    1E7E3 : 0;
    1E7E4 : 0;
    1E7E5 : 0;
    1E7E6 : 0;
    1E7E7 : 0;
    1E7E8 : 0;
    1E7E9 : 0;
    1E7EA : 0;
    1E7EB : 0;
    1E7EC : 0;
    1E7ED : 0;
    1E7EE : 0;
    1E7EF : 0;
    1E7F0 : 0;
    1E7F1 : 0;
    1E7F2 : 0;
    1E7F3 : 0;
    1E7F4 : 0;
    1E7F5 : 0;
    1E7F6 : 0;
    1E7F7 : 0;
    1E7F8 : 0;
    1E7F9 : 0;
    1E7FA : 0;
    1E7FB : 0;
    1E7FC : 0;
    1E7FD : 0;
    1E7FE : 0;
    1E7FF : 0;
    1E800 : 0;
    1E801 : 0;
    1E802 : 0;
    1E803 : 0;
    1E804 : 0;
    1E805 : 0;
    1E806 : 0;
    1E807 : 0;
    1E808 : 0;
    1E809 : 0;
    1E80A : 0;
    1E80B : 0;
    1E80C : 0;
    1E80D : 0;
    1E80E : 0;
    1E80F : 0;
    1E810 : 0;
    1E811 : 0;
    1E812 : 0;
    1E813 : 0;
    1E814 : 0;
    1E815 : 0;
    1E816 : 0;
    1E817 : 0;
    1E818 : 0;
    1E819 : 0;
    1E81A : 0;
    1E81B : 0;
    1E81C : 0;
    1E81D : 0;
    1E81E : 0;
    1E81F : 0;
    1E820 : 0;
    1E821 : 0;
    1E822 : 0;
    1E823 : 0;
    1E824 : 0;
    1E825 : 0;
    1E826 : 0;
    1E827 : 0;
    1E828 : 0;
    1E829 : 0;
    1E82A : 0;
    1E82B : 0;
    1E82C : 0;
    1E82D : 0;
    1E82E : 0;
    1E82F : 0;
    1E830 : 0;
    1E831 : 0;
    1E832 : 0;
    1E833 : 0;
    1E834 : 0;
    1E835 : 0;
    1E836 : 0;
    1E837 : 0;
    1E838 : 0;
    1E839 : 0;
    1E83A : 0;
    1E83B : 0;
    1E83C : 0;
    1E83D : 0;
    1E83E : 0;
    1E83F : 0;
    1E840 : 0;
    1E841 : 0;
    1E842 : 0;
    1E843 : 0;
    1E844 : 0;
    1E845 : 0;
    1E846 : 0;
    1E847 : 0;
    1E848 : 0;
    1E849 : 0;
    1E84A : 0;
    1E84B : 0;
    1E84C : 0;
    1E84D : 0;
    1E84E : 0;
    1E84F : 0;
    1E850 : 0;
    1E851 : 0;
    1E852 : 0;
    1E853 : 0;
    1E854 : 0;
    1E855 : 0;
    1E856 : 0;
    1E857 : 0;
    1E858 : 0;
    1E859 : 0;
    1E85A : 0;
    1E85B : 0;
    1E85C : 0;
    1E85D : 0;
    1E85E : 0;
    1E85F : 0;
    1E860 : 0;
    1E861 : 0;
    1E862 : 0;
    1E863 : 0;
    1E864 : 0;
    1E865 : 0;
    1E866 : 0;
    1E867 : 0;
    1E868 : 0;
    1E869 : 0;
    1E86A : 0;
    1E86B : 0;
    1E86C : 0;
    1E86D : 0;
    1E86E : 0;
    1E86F : 0;
    1E870 : 0;
    1E871 : 0;
    1E872 : 0;
    1E873 : 0;
    1E874 : 0;
    1E875 : 0;
    1E876 : 0;
    1E877 : 0;
    1E878 : 0;
    1E879 : 0;
    1E87A : 0;
    1E87B : 0;
    1E87C : 0;
    1E87D : 0;
    1E87E : 0;
    1E87F : 0;
    1E880 : 0;
    1E881 : 0;
    1E882 : 0;
    1E883 : 0;
    1E884 : 0;
    1E885 : 0;
    1E886 : 0;
    1E887 : 0;
    1E888 : 0;
    1E889 : 0;
    1E88A : 0;
    1E88B : 0;
    1E88C : 0;
    1E88D : 0;
    1E88E : 0;
    1E88F : 0;
    1E890 : 0;
    1E891 : 0;
    1E892 : 0;
    1E893 : 0;
    1E894 : 0;
    1E895 : 0;
    1E896 : 0;
    1E897 : 0;
    1E898 : 0;
    1E899 : 0;
    1E89A : 0;
    1E89B : 0;
    1E89C : 0;
    1E89D : 0;
    1E89E : 0;
    1E89F : 0;
    1E8A0 : 0;
    1E8A1 : 0;
    1E8A2 : 0;
    1E8A3 : 0;
    1E8A4 : 0;
    1E8A5 : 0;
    1E8A6 : 0;
    1E8A7 : 0;
    1E8A8 : 0;
    1E8A9 : 0;
    1E8AA : 0;
    1E8AB : 0;
    1E8AC : 0;
    1E8AD : 0;
    1E8AE : 0;
    1E8AF : 0;
    1E8B0 : 0;
    1E8B1 : 0;
    1E8B2 : 0;
    1E8B3 : 0;
    1E8B4 : 0;
    1E8B5 : 0;
    1E8B6 : 0;
    1E8B7 : 0;
    1E8B8 : 0;
    1E8B9 : 0;
    1E8BA : 0;
    1E8BB : 0;
    1E8BC : 0;
    1E8BD : 0;
    1E8BE : 0;
    1E8BF : 0;
    1E8C0 : 0;
    1E8C1 : 0;
    1E8C2 : 0;
    1E8C3 : 0;
    1E8C4 : 0;
    1E8C5 : 0;
    1E8C6 : 0;
    1E8C7 : 0;
    1E8C8 : 0;
    1E8C9 : 0;
    1E8CA : 0;
    1E8CB : 0;
    1E8CC : 0;
    1E8CD : 0;
    1E8CE : 0;
    1E8CF : 0;
    1E8D0 : 0;
    1E8D1 : 0;
    1E8D2 : 0;
    1E8D3 : 0;
    1E8D4 : 0;
    1E8D5 : 0;
    1E8D6 : 0;
    1E8D7 : 0;
    1E8D8 : 0;
    1E8D9 : 0;
    1E8DA : 0;
    1E8DB : 0;
    1E8DC : 0;
    1E8DD : 0;
    1E8DE : 0;
    1E8DF : 0;
    1E8E0 : 0;
    1E8E1 : 0;
    1E8E2 : 0;
    1E8E3 : 0;
    1E8E4 : 0;
    1E8E5 : 0;
    1E8E6 : 0;
    1E8E7 : 0;
    1E8E8 : 0;
    1E8E9 : 0;
    1E8EA : 0;
    1E8EB : 0;
    1E8EC : 0;
    1E8ED : 0;
    1E8EE : 0;
    1E8EF : 0;
    1E8F0 : 0;
    1E8F1 : 0;
    1E8F2 : 0;
    1E8F3 : 0;
    1E8F4 : 0;
    1E8F5 : 0;
    1E8F6 : 0;
    1E8F7 : 0;
    1E8F8 : 0;
    1E8F9 : 0;
    1E8FA : 0;
    1E8FB : 0;
    1E8FC : 0;
    1E8FD : 0;
    1E8FE : 0;
    1E8FF : 0;
    1E900 : 0;
    1E901 : 0;
    1E902 : 0;
    1E903 : 0;
    1E904 : 0;
    1E905 : 0;
    1E906 : 0;
    1E907 : 0;
    1E908 : 0;
    1E909 : 0;
    1E90A : 0;
    1E90B : 0;
    1E90C : 0;
    1E90D : 0;
    1E90E : 0;
    1E90F : 0;
END;
