WIDTH=32;
DEPTH=10100;

ADDRESS_RADIX=HEX;
DATA_RADIX=HEX;

CONTENT BEGIN
    0 : 64;
    1 : 64;
    2 : 0;
    3 : 0;
    4 : FF;
    5 : FF;
    6 : FF;
    7 : FF;
    8 : FF;
    9 : FF;
    A : FF;
    B : FF;
    C : FF;
    D : FF;
    E : FF;
    F : FF;
    10 : FF;
    11 : FF;
    12 : FF;
    13 : FF;
    14 : FF;
    15 : FF;
    16 : FF;
    17 : FF;
    18 : FF;
    19 : FF;
    1A : FF;
    1B : FF;
    1C : FF;
    1D : FF;
    1E : FF;
    1F : FF;
    20 : FF;
    21 : FF;
    22 : FF;
    23 : FF;
    24 : FF;
    25 : FF;
    26 : FF;
    27 : FF;
    28 : FF;
    29 : FF;
    2A : FF;
    2B : FF;
    2C : FF;
    2D : FF;
    2E : FF;
    2F : FF;
    30 : FF;
    31 : FF;
    32 : FF;
    33 : FF;
    34 : FF;
    35 : FF;
    36 : FF;
    37 : FF;
    38 : FF;
    39 : FF;
    3A : FF;
    3B : FF;
    3C : FF;
    3D : FF;
    3E : FF;
    3F : FF;
    40 : FF;
    41 : FF;
    42 : FF;
    43 : FF;
    44 : FF;
    45 : FF;
    46 : FF;
    47 : FF;
    48 : FF;
    49 : FF;
    4A : FF;
    4B : FF;
    4C : FF;
    4D : FF;
    4E : FF;
    4F : FF;
    50 : FF;
    51 : FF;
    52 : FF;
    53 : FF;
    54 : FF;
    55 : FF;
    56 : FF;
    57 : FF;
    58 : FF;
    59 : FF;
    5A : FF;
    5B : FF;
    5C : FF;
    5D : FF;
    5E : FF;
    5F : FF;
    60 : FF;
    61 : FF;
    62 : FF;
    63 : FF;
    64 : FF;
    65 : FF;
    66 : FF;
    67 : FF;
    68 : FF;
    69 : FF;
    6A : FF;
    6B : FF;
    6C : FF;
    6D : FF;
    6E : FF;
    6F : FF;
    70 : FF;
    71 : FF;
    72 : FF;
    73 : FF;
    74 : FF;
    75 : FF;
    76 : FF;
    77 : FF;
    78 : FF;
    79 : FF;
    7A : FF;
    7B : FF;
    7C : FF;
    7D : FF;
    7E : FF;
    7F : FF;
    80 : FF;
    81 : FF;
    82 : FF;
    83 : FF;
    84 : FF;
    85 : FF;
    86 : FF;
    87 : FF;
    88 : FF;
    89 : FF;
    8A : FF;
    8B : FF;
    8C : FF;
    8D : FF;
    8E : FF;
    8F : FF;
    90 : FF;
    91 : FF;
    92 : FF;
    93 : FF;
    94 : FF;
    95 : FF;
    96 : FF;
    97 : FF;
    98 : FF;
    99 : FF;
    9A : FF;
    9B : FF;
    9C : FF;
    9D : FF;
    9E : FF;
    9F : FF;
    A0 : FF;
    A1 : FF;
    A2 : FF;
    A3 : FF;
    A4 : FF;
    A5 : FF;
    A6 : FF;
    A7 : FF;
    A8 : FF;
    A9 : FF;
    AA : FF;
    AB : FF;
    AC : FF;
    AD : FF;
    AE : FF;
    AF : FF;
    B0 : FF;
    B1 : FF;
    B2 : FF;
    B3 : FF;
    B4 : FF;
    B5 : FF;
    B6 : FF;
    B7 : FF;
    B8 : FF;
    B9 : FF;
    BA : FF;
    BB : FF;
    BC : FF;
    BD : FF;
    BE : FF;
    BF : FF;
    C0 : FF;
    C1 : FF;
    C2 : FF;
    C3 : FF;
    C4 : FF;
    C5 : FF;
    C6 : FF;
    C7 : FF;
    C8 : FF;
    C9 : FF;
    CA : FF;
    CB : FF;
    CC : FF;
    CD : FF;
    CE : FF;
    CF : FF;
    D0 : FF;
    D1 : FF;
    D2 : FF;
    D3 : FF;
    D4 : FF;
    D5 : FF;
    D6 : FF;
    D7 : FF;
    D8 : FF;
    D9 : FF;
    DA : FF;
    DB : FF;
    DC : FF;
    DD : FF;
    DE : FF;
    DF : FF;
    E0 : FF;
    E1 : FF;
    E2 : FF;
    E3 : FF;
    E4 : FF;
    E5 : FF;
    E6 : FF;
    E7 : FF;
    E8 : FF;
    E9 : FF;
    EA : FF;
    EB : FF;
    EC : FF;
    ED : FF;
    EE : FF;
    EF : FF;
    F0 : FF;
    F1 : FF;
    F2 : FF;
    F3 : FF;
    F4 : FF;
    F5 : FF;
    F6 : FF;
    F7 : FF;
    F8 : FF;
    F9 : FF;
    FA : FF;
    FB : FF;
    FC : FF;
    FD : FF;
    FE : FF;
    FF : FF;
    100 : FF;
    101 : FF;
    102 : FF;
    103 : FF;
    104 : FF;
    105 : FF;
    106 : FF;
    107 : FF;
    108 : FF;
    109 : FF;
    10A : FF;
    10B : FF;
    10C : FF;
    10D : FF;
    10E : FF;
    10F : FF;
    110 : FF;
    111 : FF;
    112 : FF;
    113 : FF;
    114 : FF;
    115 : FF;
    116 : FF;
    117 : FF;
    118 : FF;
    119 : FF;
    11A : FF;
    11B : FF;
    11C : FF;
    11D : FF;
    11E : FF;
    11F : FF;
    120 : FF;
    121 : FF;
    122 : FF;
    123 : FF;
    124 : FF;
    125 : FF;
    126 : FF;
    127 : FF;
    128 : FF;
    129 : FF;
    12A : FF;
    12B : FF;
    12C : FF;
    12D : FF;
    12E : FF;
    12F : FF;
    130 : FF;
    131 : FF;
    132 : FF;
    133 : FF;
    134 : FF;
    135 : FF;
    136 : FF;
    137 : FF;
    138 : FF;
    139 : FF;
    13A : FF;
    13B : FF;
    13C : FF;
    13D : FF;
    13E : FF;
    13F : FF;
    140 : FF;
    141 : FF;
    142 : FF;
    143 : FF;
    144 : FF;
    145 : FF;
    146 : FF;
    147 : FF;
    148 : FF;
    149 : FF;
    14A : FF;
    14B : FF;
    14C : FF;
    14D : FF;
    14E : FF;
    14F : FF;
    150 : FF;
    151 : FF;
    152 : FF;
    153 : FF;
    154 : FF;
    155 : FF;
    156 : FF;
    157 : FF;
    158 : FF;
    159 : FF;
    15A : FF;
    15B : FF;
    15C : FF;
    15D : FF;
    15E : FF;
    15F : FF;
    160 : FF;
    161 : FF;
    162 : FF;
    163 : FF;
    164 : FF;
    165 : FF;
    166 : FF;
    167 : FF;
    168 : FF;
    169 : FF;
    16A : FF;
    16B : FF;
    16C : FF;
    16D : FF;
    16E : FF;
    16F : FF;
    170 : FF;
    171 : FF;
    172 : FF;
    173 : FF;
    174 : FF;
    175 : FF;
    176 : FF;
    177 : FF;
    178 : FF;
    179 : FF;
    17A : FF;
    17B : FF;
    17C : FF;
    17D : FF;
    17E : FF;
    17F : FF;
    180 : FF;
    181 : FF;
    182 : FF;
    183 : FF;
    184 : FF;
    185 : FF;
    186 : FF;
    187 : FF;
    188 : FF;
    189 : FF;
    18A : FF;
    18B : FF;
    18C : FF;
    18D : FF;
    18E : FF;
    18F : FF;
    190 : FF;
    191 : FF;
    192 : FF;
    193 : FF;
    194 : FF;
    195 : FF;
    196 : FF;
    197 : FF;
    198 : FF;
    199 : FF;
    19A : FF;
    19B : FF;
    19C : FF;
    19D : FF;
    19E : FF;
    19F : FF;
    1A0 : FF;
    1A1 : FF;
    1A2 : FF;
    1A3 : FF;
    1A4 : FF;
    1A5 : FF;
    1A6 : FF;
    1A7 : FF;
    1A8 : FF;
    1A9 : FF;
    1AA : FF;
    1AB : FF;
    1AC : FF;
    1AD : FF;
    1AE : FF;
    1AF : FF;
    1B0 : FF;
    1B1 : FF;
    1B2 : FF;
    1B3 : FF;
    1B4 : FF;
    1B5 : FF;
    1B6 : FF;
    1B7 : FF;
    1B8 : FF;
    1B9 : FF;
    1BA : FF;
    1BB : FF;
    1BC : FF;
    1BD : FF;
    1BE : FF;
    1BF : FF;
    1C0 : FF;
    1C1 : FF;
    1C2 : FF;
    1C3 : FF;
    1C4 : FF;
    1C5 : FF;
    1C6 : FF;
    1C7 : FF;
    1C8 : FF;
    1C9 : FF;
    1CA : FF;
    1CB : FF;
    1CC : FF;
    1CD : FF;
    1CE : FF;
    1CF : FF;
    1D0 : FF;
    1D1 : FF;
    1D2 : FF;
    1D3 : FF;
    1D4 : FF;
    1D5 : FF;
    1D6 : FF;
    1D7 : FF;
    1D8 : FF;
    1D9 : FF;
    1DA : FF;
    1DB : FF;
    1DC : FF;
    1DD : FF;
    1DE : FF;
    1DF : FF;
    1E0 : FF;
    1E1 : FF;
    1E2 : FF;
    1E3 : FF;
    1E4 : FF;
    1E5 : FF;
    1E6 : FF;
    1E7 : FF;
    1E8 : FF;
    1E9 : FF;
    1EA : FF;
    1EB : FF;
    1EC : FF;
    1ED : FF;
    1EE : FF;
    1EF : FF;
    1F0 : FF;
    1F1 : FF;
    1F2 : FF;
    1F3 : FF;
    1F4 : FF;
    1F5 : FF;
    1F6 : FF;
    1F7 : FF;
    1F8 : FF;
    1F9 : FF;
    1FA : FF;
    1FB : FF;
    1FC : FF;
    1FD : FF;
    1FE : FF;
    1FF : FF;
    200 : FF;
    201 : FF;
    202 : FF;
    203 : FF;
    204 : FF;
    205 : FF;
    206 : FF;
    207 : FF;
    208 : FF;
    209 : FF;
    20A : FF;
    20B : FF;
    20C : FF;
    20D : FF;
    20E : FF;
    20F : FF;
    210 : FF;
    211 : FF;
    212 : FF;
    213 : FF;
    214 : FF;
    215 : FF;
    216 : FF;
    217 : FF;
    218 : FF;
    219 : FF;
    21A : FF;
    21B : FF;
    21C : FF;
    21D : FF;
    21E : FF;
    21F : FF;
    220 : FF;
    221 : FF;
    222 : FF;
    223 : FF;
    224 : FF;
    225 : FF;
    226 : FF;
    227 : FF;
    228 : FF;
    229 : FF;
    22A : FF;
    22B : FF;
    22C : FF;
    22D : FF;
    22E : FF;
    22F : FF;
    230 : FF;
    231 : FF;
    232 : FF;
    233 : FF;
    234 : FF;
    235 : FF;
    236 : FF;
    237 : FF;
    238 : FF;
    239 : FF;
    23A : FF;
    23B : FF;
    23C : FF;
    23D : FF;
    23E : FF;
    23F : FF;
    240 : FF;
    241 : FF;
    242 : FF;
    243 : FF;
    244 : FF;
    245 : FF;
    246 : FF;
    247 : FF;
    248 : FF;
    249 : FF;
    24A : FF;
    24B : FF;
    24C : FF;
    24D : FF;
    24E : FF;
    24F : FF;
    250 : FF;
    251 : FF;
    252 : FF;
    253 : FF;
    254 : FF;
    255 : FF;
    256 : FF;
    257 : FF;
    258 : FF;
    259 : FF;
    25A : FF;
    25B : FF;
    25C : FF;
    25D : FF;
    25E : FF;
    25F : FF;
    260 : FF;
    261 : FF;
    262 : FF;
    263 : FF;
    264 : FF;
    265 : FF;
    266 : FF;
    267 : FF;
    268 : FF;
    269 : FF;
    26A : FF;
    26B : FF;
    26C : FF;
    26D : FF;
    26E : FF;
    26F : FF;
    270 : FF;
    271 : FF;
    272 : FF;
    273 : FF;
    274 : FF;
    275 : FF;
    276 : FF;
    277 : FF;
    278 : FF;
    279 : FF;
    27A : FF;
    27B : FF;
    27C : FF;
    27D : FF;
    27E : FF;
    27F : FF;
    280 : FF;
    281 : FF;
    282 : FF;
    283 : FF;
    284 : FF;
    285 : FF;
    286 : FF;
    287 : FF;
    288 : FF;
    289 : FF;
    28A : FF;
    28B : FF;
    28C : FF;
    28D : FF;
    28E : FF;
    28F : FF;
    290 : FF;
    291 : FF;
    292 : FF;
    293 : FF;
    294 : FF;
    295 : FF;
    296 : FF;
    297 : FF;
    298 : FF;
    299 : FF;
    29A : FF;
    29B : FF;
    29C : FF;
    29D : FF;
    29E : FF;
    29F : FF;
    2A0 : FF;
    2A1 : FF;
    2A2 : FF;
    2A3 : FF;
    2A4 : FF;
    2A5 : FF;
    2A6 : FF;
    2A7 : FF;
    2A8 : FF;
    2A9 : FF;
    2AA : FF;
    2AB : FF;
    2AC : FF;
    2AD : FF;
    2AE : FF;
    2AF : FF;
    2B0 : FF;
    2B1 : FF;
    2B2 : FF;
    2B3 : FF;
    2B4 : FF;
    2B5 : FF;
    2B6 : FF;
    2B7 : FF;
    2B8 : FF;
    2B9 : FF;
    2BA : FF;
    2BB : FF;
    2BC : FF;
    2BD : FF;
    2BE : FF;
    2BF : FF;
    2C0 : FF;
    2C1 : FF;
    2C2 : FF;
    2C3 : FF;
    2C4 : FF;
    2C5 : FF;
    2C6 : FF;
    2C7 : FF;
    2C8 : FF;
    2C9 : FF;
    2CA : FF;
    2CB : FF;
    2CC : FF;
    2CD : FF;
    2CE : FF;
    2CF : FF;
    2D0 : FF;
    2D1 : FF;
    2D2 : FF;
    2D3 : FF;
    2D4 : FF;
    2D5 : FF;
    2D6 : FF;
    2D7 : FF;
    2D8 : FF;
    2D9 : FF;
    2DA : FF;
    2DB : FF;
    2DC : FF;
    2DD : FF;
    2DE : FF;
    2DF : FF;
    2E0 : FF;
    2E1 : FF;
    2E2 : FF;
    2E3 : FF;
    2E4 : FF;
    2E5 : FF;
    2E6 : FF;
    2E7 : FF;
    2E8 : FF;
    2E9 : FF;
    2EA : FF;
    2EB : FF;
    2EC : 95;
    2ED : 00;
    2EE : 00;
    2EF : 00;
    2F0 : 00;
    2F1 : 00;
    2F2 : 00;
    2F3 : 00;
    2F4 : 00;
    2F5 : 00;
    2F6 : 00;
    2F7 : 00;
    2F8 : 00;
    2F9 : 00;
    2FA : 00;
    2FB : 3E;
    2FC : FF;
    2FD : FF;
    2FE : FF;
    2FF : FF;
    300 : FF;
    301 : FF;
    302 : FF;
    303 : FF;
    304 : FF;
    305 : FF;
    306 : FF;
    307 : FF;
    308 : FF;
    309 : FF;
    30A : FF;
    30B : FF;
    30C : FF;
    30D : FF;
    30E : FF;
    30F : FF;
    310 : FF;
    311 : FF;
    312 : FF;
    313 : FF;
    314 : FF;
    315 : FF;
    316 : FF;
    317 : FF;
    318 : FF;
    319 : FF;
    31A : FF;
    31B : FF;
    31C : FF;
    31D : FF;
    31E : FF;
    31F : FF;
    320 : FF;
    321 : FF;
    322 : FF;
    323 : FF;
    324 : FF;
    325 : FF;
    326 : FF;
    327 : FF;
    328 : FF;
    329 : FF;
    32A : FF;
    32B : FF;
    32C : FF;
    32D : FF;
    32E : FF;
    32F : FF;
    330 : FF;
    331 : FF;
    332 : FF;
    333 : FF;
    334 : FF;
    335 : FF;
    336 : FF;
    337 : FF;
    338 : FF;
    339 : FF;
    33A : FF;
    33B : FF;
    33C : FF;
    33D : FF;
    33E : FF;
    33F : FF;
    340 : FF;
    341 : FF;
    342 : FF;
    343 : FF;
    344 : FF;
    345 : FF;
    346 : FF;
    347 : FF;
    348 : FF;
    349 : FF;
    34A : FF;
    34B : FF;
    34C : FF;
    34D : FF;
    34E : FF;
    34F : FF;
    350 : 68;
    351 : 00;
    352 : 01;
    353 : 00;
    354 : 00;
    355 : 00;
    356 : 00;
    357 : 00;
    358 : 00;
    359 : 00;
    35A : 00;
    35B : 00;
    35C : 00;
    35D : 08;
    35E : 00;
    35F : 23;
    360 : FF;
    361 : FF;
    362 : FF;
    363 : FF;
    364 : FF;
    365 : FF;
    366 : FF;
    367 : FF;
    368 : FF;
    369 : FF;
    36A : FF;
    36B : FF;
    36C : FF;
    36D : FF;
    36E : FF;
    36F : FF;
    370 : FF;
    371 : FF;
    372 : FF;
    373 : FF;
    374 : FF;
    375 : FF;
    376 : FF;
    377 : FF;
    378 : FF;
    379 : FF;
    37A : FF;
    37B : FF;
    37C : FF;
    37D : FF;
    37E : FF;
    37F : FF;
    380 : FF;
    381 : FF;
    382 : FF;
    383 : FF;
    384 : FF;
    385 : FF;
    386 : FF;
    387 : FF;
    388 : FF;
    389 : FF;
    38A : FF;
    38B : FF;
    38C : FF;
    38D : FF;
    38E : FF;
    38F : FF;
    390 : FF;
    391 : FF;
    392 : FF;
    393 : FF;
    394 : FF;
    395 : FF;
    396 : FF;
    397 : FF;
    398 : FF;
    399 : FF;
    39A : FF;
    39B : FF;
    39C : FF;
    39D : FF;
    39E : FF;
    39F : FF;
    3A0 : FF;
    3A1 : FF;
    3A2 : FF;
    3A3 : FF;
    3A4 : FF;
    3A5 : FF;
    3A6 : FF;
    3A7 : FF;
    3A8 : FF;
    3A9 : FF;
    3AA : FF;
    3AB : FF;
    3AC : FF;
    3AD : FF;
    3AE : FF;
    3AF : FF;
    3B0 : FF;
    3B1 : FF;
    3B2 : FF;
    3B3 : FF;
    3B4 : 6D;
    3B5 : 00;
    3B6 : ED;
    3B7 : FF;
    3B8 : FF;
    3B9 : FF;
    3BA : FF;
    3BB : FF;
    3BC : FF;
    3BD : FF;
    3BE : FF;
    3BF : FF;
    3C0 : FF;
    3C1 : FF;
    3C2 : 00;
    3C3 : 27;
    3C4 : FF;
    3C5 : FF;
    3C6 : FF;
    3C7 : FF;
    3C8 : FF;
    3C9 : FF;
    3CA : FF;
    3CB : FF;
    3CC : FF;
    3CD : FF;
    3CE : FF;
    3CF : FF;
    3D0 : FF;
    3D1 : FF;
    3D2 : FF;
    3D3 : FF;
    3D4 : FF;
    3D5 : FF;
    3D6 : FF;
    3D7 : FF;
    3D8 : FF;
    3D9 : FF;
    3DA : FF;
    3DB : FF;
    3DC : FF;
    3DD : FF;
    3DE : FF;
    3DF : FF;
    3E0 : FF;
    3E1 : FF;
    3E2 : FF;
    3E3 : FF;
    3E4 : FF;
    3E5 : FF;
    3E6 : FF;
    3E7 : FF;
    3E8 : FF;
    3E9 : FF;
    3EA : FF;
    3EB : FF;
    3EC : FF;
    3ED : FF;
    3EE : FF;
    3EF : FF;
    3F0 : FF;
    3F1 : FF;
    3F2 : FF;
    3F3 : FF;
    3F4 : FF;
    3F5 : FF;
    3F6 : FF;
    3F7 : FF;
    3F8 : FF;
    3F9 : FF;
    3FA : FF;
    3FB : FF;
    3FC : FF;
    3FD : FF;
    3FE : FF;
    3FF : FF;
    400 : FF;
    401 : FF;
    402 : FF;
    403 : FF;
    404 : FF;
    405 : FF;
    406 : FF;
    407 : FF;
    408 : FF;
    409 : FF;
    40A : FF;
    40B : FF;
    40C : FF;
    40D : FF;
    40E : FF;
    40F : FF;
    410 : FF;
    411 : FF;
    412 : FF;
    413 : FF;
    414 : FF;
    415 : FF;
    416 : FF;
    417 : FF;
    418 : 6D;
    419 : 00;
    41A : D8;
    41B : FF;
    41C : 66;
    41D : C3;
    41E : FF;
    41F : 88;
    420 : 32;
    421 : FF;
    422 : FF;
    423 : 58;
    424 : FF;
    425 : D7;
    426 : 00;
    427 : 27;
    428 : FF;
    429 : FF;
    42A : FF;
    42B : FF;
    42C : FF;
    42D : FF;
    42E : FF;
    42F : FF;
    430 : FF;
    431 : FF;
    432 : FF;
    433 : FF;
    434 : FF;
    435 : FF;
    436 : FF;
    437 : FF;
    438 : FF;
    439 : FF;
    43A : FF;
    43B : FF;
    43C : FF;
    43D : FF;
    43E : FF;
    43F : FF;
    440 : FF;
    441 : FF;
    442 : FF;
    443 : FF;
    444 : FF;
    445 : FF;
    446 : FF;
    447 : FF;
    448 : FF;
    449 : FF;
    44A : FF;
    44B : FF;
    44C : FF;
    44D : FF;
    44E : FF;
    44F : FF;
    450 : FF;
    451 : FF;
    452 : FF;
    453 : FF;
    454 : FF;
    455 : FF;
    456 : FF;
    457 : FF;
    458 : FF;
    459 : FF;
    45A : FF;
    45B : FF;
    45C : FF;
    45D : FF;
    45E : FF;
    45F : FF;
    460 : FF;
    461 : FF;
    462 : FF;
    463 : FF;
    464 : FF;
    465 : FF;
    466 : FF;
    467 : FF;
    468 : FF;
    469 : FF;
    46A : FF;
    46B : FF;
    46C : FF;
    46D : FF;
    46E : FF;
    46F : FF;
    470 : FF;
    471 : FF;
    472 : FF;
    473 : FF;
    474 : FF;
    475 : FF;
    476 : FF;
    477 : FF;
    478 : FF;
    479 : FF;
    47A : FF;
    47B : FF;
    47C : 6D;
    47D : 00;
    47E : DE;
    47F : D8;
    480 : 00;
    481 : 20;
    482 : FF;
    483 : 42;
    484 : 00;
    485 : FF;
    486 : 78;
    487 : 00;
    488 : 8F;
    489 : E4;
    48A : 00;
    48B : 27;
    48C : FF;
    48D : FF;
    48E : FF;
    48F : FF;
    490 : FF;
    491 : FF;
    492 : FF;
    493 : FF;
    494 : FF;
    495 : FF;
    496 : FF;
    497 : FF;
    498 : FF;
    499 : FF;
    49A : FF;
    49B : FF;
    49C : FF;
    49D : FF;
    49E : FF;
    49F : FF;
    4A0 : FF;
    4A1 : FF;
    4A2 : FF;
    4A3 : FF;
    4A4 : FF;
    4A5 : FF;
    4A6 : FF;
    4A7 : FF;
    4A8 : FF;
    4A9 : FF;
    4AA : FF;
    4AB : FF;
    4AC : FF;
    4AD : FF;
    4AE : FF;
    4AF : FF;
    4B0 : FF;
    4B1 : FF;
    4B2 : FF;
    4B3 : FF;
    4B4 : FF;
    4B5 : FF;
    4B6 : FF;
    4B7 : FF;
    4B8 : FF;
    4B9 : FF;
    4BA : FF;
    4BB : FF;
    4BC : FF;
    4BD : FF;
    4BE : FF;
    4BF : FF;
    4C0 : FF;
    4C1 : FF;
    4C2 : FF;
    4C3 : FF;
    4C4 : FF;
    4C5 : FF;
    4C6 : FF;
    4C7 : FF;
    4C8 : FF;
    4C9 : FF;
    4CA : FF;
    4CB : FF;
    4CC : FF;
    4CD : FF;
    4CE : FF;
    4CF : FF;
    4D0 : FF;
    4D1 : FF;
    4D2 : FF;
    4D3 : FF;
    4D4 : FF;
    4D5 : FF;
    4D6 : FF;
    4D7 : FF;
    4D8 : FF;
    4D9 : FF;
    4DA : FF;
    4DB : FF;
    4DC : FF;
    4DD : FF;
    4DE : FF;
    4DF : FF;
    4E0 : 6D;
    4E1 : 00;
    4E2 : DE;
    4E3 : D9;
    4E4 : 00;
    4E5 : 26;
    4E6 : FF;
    4E7 : 4A;
    4E8 : 00;
    4E9 : FF;
    4EA : A9;
    4EB : 00;
    4EC : E4;
    4ED : DB;
    4EE : 00;
    4EF : 27;
    4F0 : FF;
    4F1 : FF;
    4F2 : FF;
    4F3 : FF;
    4F4 : FF;
    4F5 : FF;
    4F6 : FF;
    4F7 : FF;
    4F8 : FF;
    4F9 : FF;
    4FA : FF;
    4FB : FF;
    4FC : FF;
    4FD : FF;
    4FE : FF;
    4FF : FF;
    500 : FF;
    501 : FF;
    502 : FF;
    503 : FF;
    504 : FF;
    505 : FF;
    506 : FF;
    507 : FF;
    508 : FF;
    509 : FF;
    50A : FF;
    50B : FF;
    50C : FF;
    50D : FF;
    50E : FF;
    50F : FF;
    510 : FF;
    511 : FF;
    512 : FF;
    513 : FF;
    514 : FF;
    515 : FF;
    516 : FF;
    517 : FF;
    518 : FF;
    519 : FF;
    51A : FF;
    51B : FF;
    51C : FF;
    51D : FF;
    51E : FF;
    51F : FF;
    520 : FF;
    521 : FF;
    522 : FF;
    523 : FF;
    524 : FF;
    525 : FF;
    526 : FF;
    527 : FF;
    528 : FF;
    529 : FF;
    52A : FF;
    52B : FF;
    52C : FF;
    52D : FF;
    52E : FF;
    52F : FF;
    530 : FF;
    531 : FF;
    532 : FF;
    533 : FF;
    534 : FF;
    535 : FF;
    536 : FF;
    537 : FF;
    538 : FF;
    539 : FF;
    53A : FF;
    53B : FF;
    53C : FF;
    53D : FF;
    53E : FF;
    53F : FF;
    540 : FF;
    541 : FF;
    542 : FF;
    543 : FF;
    544 : 75;
    545 : 00;
    546 : E9;
    547 : FF;
    548 : 00;
    549 : 2B;
    54A : FF;
    54B : 4D;
    54C : 00;
    54D : FF;
    54E : C5;
    54F : 00;
    550 : E9;
    551 : FF;
    552 : 00;
    553 : 2B;
    554 : FF;
    555 : FF;
    556 : FF;
    557 : FF;
    558 : FF;
    559 : FF;
    55A : FF;
    55B : FF;
    55C : FF;
    55D : FF;
    55E : FF;
    55F : FF;
    560 : FF;
    561 : FF;
    562 : FF;
    563 : FF;
    564 : FF;
    565 : FF;
    566 : FF;
    567 : FF;
    568 : FF;
    569 : FF;
    56A : FF;
    56B : FF;
    56C : FF;
    56D : FF;
    56E : FF;
    56F : FF;
    570 : FF;
    571 : FF;
    572 : FF;
    573 : FF;
    574 : FF;
    575 : FF;
    576 : FF;
    577 : FF;
    578 : FF;
    579 : FF;
    57A : FF;
    57B : FF;
    57C : FF;
    57D : FF;
    57E : FF;
    57F : FF;
    580 : FF;
    581 : FF;
    582 : FF;
    583 : FF;
    584 : FF;
    585 : FF;
    586 : FF;
    587 : FF;
    588 : FF;
    589 : FF;
    58A : FF;
    58B : FF;
    58C : FF;
    58D : FF;
    58E : FF;
    58F : FF;
    590 : FF;
    591 : FF;
    592 : FF;
    593 : FF;
    594 : FF;
    595 : FF;
    596 : FF;
    597 : FF;
    598 : FF;
    599 : FF;
    59A : FF;
    59B : FF;
    59C : FF;
    59D : FF;
    59E : FF;
    59F : FF;
    5A0 : FF;
    5A1 : FF;
    5A2 : FF;
    5A3 : FF;
    5A4 : FF;
    5A5 : 6F;
    5A6 : 6B;
    5A7 : 75;
    5A8 : 2F;
    5A9 : 00;
    5AA : 4A;
    5AB : 83;
    5AC : 00;
    5AD : 10;
    5AE : 7F;
    5AF : 45;
    5B0 : 00;
    5B1 : 7A;
    5B2 : 4E;
    5B3 : 00;
    5B4 : 5D;
    5B5 : 83;
    5B6 : 00;
    5B7 : 10;
    5B8 : 78;
    5B9 : 6D;
    5BA : 61;
    5BB : D4;
    5BC : FF;
    5BD : FF;
    5BE : FF;
    5BF : FF;
    5C0 : FF;
    5C1 : FF;
    5C2 : FF;
    5C3 : FF;
    5C4 : FF;
    5C5 : FF;
    5C6 : FF;
    5C7 : FF;
    5C8 : FF;
    5C9 : FF;
    5CA : FF;
    5CB : FF;
    5CC : FF;
    5CD : FF;
    5CE : FF;
    5CF : FF;
    5D0 : FF;
    5D1 : FF;
    5D2 : FF;
    5D3 : FF;
    5D4 : FF;
    5D5 : FF;
    5D6 : FF;
    5D7 : FF;
    5D8 : FF;
    5D9 : FF;
    5DA : FF;
    5DB : FF;
    5DC : FF;
    5DD : FF;
    5DE : FF;
    5DF : FF;
    5E0 : FF;
    5E1 : FF;
    5E2 : FF;
    5E3 : FF;
    5E4 : FF;
    5E5 : FF;
    5E6 : FF;
    5E7 : FF;
    5E8 : FF;
    5E9 : FF;
    5EA : FF;
    5EB : FF;
    5EC : FF;
    5ED : FF;
    5EE : FF;
    5EF : FF;
    5F0 : FF;
    5F1 : FF;
    5F2 : FF;
    5F3 : FF;
    5F4 : FF;
    5F5 : FF;
    5F6 : FF;
    5F7 : FF;
    5F8 : FF;
    5F9 : FF;
    5FA : FF;
    5FB : FF;
    5FC : FF;
    5FD : FF;
    5FE : FF;
    5FF : FF;
    600 : FF;
    601 : FF;
    602 : FF;
    603 : FF;
    604 : FF;
    605 : FF;
    606 : FF;
    607 : FF;
    608 : FF;
    609 : 00;
    60A : 00;
    60B : 00;
    60C : 00;
    60D : 00;
    60E : 00;
    60F : 00;
    610 : 00;
    611 : 00;
    612 : 00;
    613 : 00;
    614 : 00;
    615 : 00;
    616 : 00;
    617 : 00;
    618 : 00;
    619 : 00;
    61A : 00;
    61B : 00;
    61C : 00;
    61D : 00;
    61E : 00;
    61F : AF;
    620 : FF;
    621 : FF;
    622 : FF;
    623 : FF;
    624 : FF;
    625 : FF;
    626 : FF;
    627 : FF;
    628 : FF;
    629 : FF;
    62A : FF;
    62B : FF;
    62C : FF;
    62D : FF;
    62E : FF;
    62F : FF;
    630 : FF;
    631 : FF;
    632 : FF;
    633 : FF;
    634 : FF;
    635 : FF;
    636 : FF;
    637 : FF;
    638 : FF;
    639 : FF;
    63A : FF;
    63B : FF;
    63C : FF;
    63D : FF;
    63E : FF;
    63F : FF;
    640 : FF;
    641 : FF;
    642 : FF;
    643 : FF;
    644 : FF;
    645 : FF;
    646 : FF;
    647 : FF;
    648 : FF;
    649 : FF;
    64A : FF;
    64B : FF;
    64C : FF;
    64D : FF;
    64E : FF;
    64F : FF;
    650 : FF;
    651 : FF;
    652 : FF;
    653 : FF;
    654 : FF;
    655 : FF;
    656 : FF;
    657 : FF;
    658 : FF;
    659 : FF;
    65A : FF;
    65B : FF;
    65C : FF;
    65D : FF;
    65E : FF;
    65F : FF;
    660 : FF;
    661 : FF;
    662 : FF;
    663 : FF;
    664 : FF;
    665 : FF;
    666 : FF;
    667 : FF;
    668 : FF;
    669 : FF;
    66A : FF;
    66B : FF;
    66C : FF;
    66D : 00;
    66E : 3C;
    66F : E8;
    670 : E6;
    671 : F1;
    672 : D8;
    673 : EB;
    674 : 61;
    675 : A8;
    676 : DD;
    677 : E9;
    678 : FF;
    679 : FF;
    67A : F3;
    67B : 00;
    67C : 66;
    67D : E5;
    67E : E6;
    67F : E4;
    680 : E4;
    681 : 7B;
    682 : 00;
    683 : B4;
    684 : FF;
    685 : FF;
    686 : FF;
    687 : FF;
    688 : FF;
    689 : FF;
    68A : FF;
    68B : FF;
    68C : FF;
    68D : FF;
    68E : FF;
    68F : FF;
    690 : FF;
    691 : FF;
    692 : FF;
    693 : FF;
    694 : FF;
    695 : FF;
    696 : FF;
    697 : FF;
    698 : FF;
    699 : FF;
    69A : FF;
    69B : FF;
    69C : FF;
    69D : FF;
    69E : FF;
    69F : FF;
    6A0 : FF;
    6A1 : FF;
    6A2 : FF;
    6A3 : FF;
    6A4 : FF;
    6A5 : FF;
    6A6 : FF;
    6A7 : FF;
    6A8 : FF;
    6A9 : FF;
    6AA : FF;
    6AB : FF;
    6AC : FF;
    6AD : FF;
    6AE : FF;
    6AF : FF;
    6B0 : FF;
    6B1 : FF;
    6B2 : FF;
    6B3 : FF;
    6B4 : FF;
    6B5 : FF;
    6B6 : FF;
    6B7 : FF;
    6B8 : FF;
    6B9 : FF;
    6BA : FF;
    6BB : FF;
    6BC : FF;
    6BD : FF;
    6BE : FF;
    6BF : FF;
    6C0 : FF;
    6C1 : FF;
    6C2 : FF;
    6C3 : FF;
    6C4 : FF;
    6C5 : FF;
    6C6 : FF;
    6C7 : FF;
    6C8 : FF;
    6C9 : FF;
    6CA : FF;
    6CB : FF;
    6CC : FF;
    6CD : FF;
    6CE : FF;
    6CF : FF;
    6D0 : FF;
    6D1 : 00;
    6D2 : 49;
    6D3 : FF;
    6D4 : 8C;
    6D5 : 06;
    6D6 : FF;
    6D7 : E1;
    6D8 : 00;
    6D9 : B6;
    6DA : FF;
    6DB : 54;
    6DC : 00;
    6DD : FF;
    6DE : E0;
    6DF : 00;
    6E0 : 97;
    6E1 : FF;
    6E2 : 65;
    6E3 : 00;
    6E4 : FF;
    6E5 : 95;
    6E6 : 00;
    6E7 : B4;
    6E8 : FF;
    6E9 : FF;
    6EA : FF;
    6EB : FF;
    6EC : FF;
    6ED : FF;
    6EE : FF;
    6EF : FF;
    6F0 : FF;
    6F1 : FF;
    6F2 : FF;
    6F3 : FF;
    6F4 : FF;
    6F5 : FF;
    6F6 : FF;
    6F7 : FF;
    6F8 : FF;
    6F9 : FF;
    6FA : FF;
    6FB : FF;
    6FC : FF;
    6FD : FF;
    6FE : FF;
    6FF : FF;
    700 : FF;
    701 : FF;
    702 : FF;
    703 : FF;
    704 : FF;
    705 : FF;
    706 : FF;
    707 : FF;
    708 : FF;
    709 : FF;
    70A : FF;
    70B : FF;
    70C : FF;
    70D : FF;
    70E : FF;
    70F : FF;
    710 : FF;
    711 : FF;
    712 : FF;
    713 : FF;
    714 : FF;
    715 : FF;
    716 : FF;
    717 : FF;
    718 : FF;
    719 : FF;
    71A : FF;
    71B : FF;
    71C : FF;
    71D : FF;
    71E : FF;
    71F : FF;
    720 : FF;
    721 : FF;
    722 : FF;
    723 : FF;
    724 : FF;
    725 : FF;
    726 : FF;
    727 : FF;
    728 : FF;
    729 : FF;
    72A : FF;
    72B : FF;
    72C : FF;
    72D : FF;
    72E : FF;
    72F : FF;
    730 : FF;
    731 : FF;
    732 : FF;
    733 : FF;
    734 : FF;
    735 : 00;
    736 : 46;
    737 : FF;
    738 : 1F;
    739 : 00;
    73A : FF;
    73B : D6;
    73C : 00;
    73D : B4;
    73E : FF;
    73F : 44;
    740 : 00;
    741 : FF;
    742 : B0;
    743 : 00;
    744 : 91;
    745 : FF;
    746 : 20;
    747 : 00;
    748 : FF;
    749 : 91;
    74A : 00;
    74B : B4;
    74C : FF;
    74D : FF;
    74E : FF;
    74F : FF;
    750 : FF;
    751 : FF;
    752 : FF;
    753 : FF;
    754 : FF;
    755 : FF;
    756 : FF;
    757 : FF;
    758 : FF;
    759 : FF;
    75A : FF;
    75B : FF;
    75C : FF;
    75D : FF;
    75E : FF;
    75F : FF;
    760 : FF;
    761 : FF;
    762 : FF;
    763 : FF;
    764 : FF;
    765 : FF;
    766 : FF;
    767 : FF;
    768 : FF;
    769 : FF;
    76A : FF;
    76B : FF;
    76C : FF;
    76D : FF;
    76E : FF;
    76F : FF;
    770 : FF;
    771 : FF;
    772 : FF;
    773 : FF;
    774 : FF;
    775 : FF;
    776 : FF;
    777 : FF;
    778 : FF;
    779 : FF;
    77A : FF;
    77B : FF;
    77C : FF;
    77D : FF;
    77E : FF;
    77F : FF;
    780 : FF;
    781 : FF;
    782 : FF;
    783 : FF;
    784 : FF;
    785 : FF;
    786 : FF;
    787 : FF;
    788 : FF;
    789 : FF;
    78A : FF;
    78B : FF;
    78C : FF;
    78D : FF;
    78E : FF;
    78F : FF;
    790 : FF;
    791 : FF;
    792 : FF;
    793 : FF;
    794 : FF;
    795 : FF;
    796 : FF;
    797 : FF;
    798 : FF;
    799 : 00;
    79A : 46;
    79B : FF;
    79C : 73;
    79D : 00;
    79E : FF;
    79F : D7;
    7A0 : 00;
    7A1 : B4;
    7A2 : FF;
    7A3 : 46;
    7A4 : 00;
    7A5 : FF;
    7A6 : B4;
    7A7 : 00;
    7A8 : 91;
    7A9 : FF;
    7AA : 22;
    7AB : 0A;
    7AC : FF;
    7AD : 91;
    7AE : 00;
    7AF : B4;
    7B0 : FF;
    7B1 : FF;
    7B2 : FF;
    7B3 : FF;
    7B4 : FF;
    7B5 : FF;
    7B6 : FF;
    7B7 : FF;
    7B8 : FF;
    7B9 : FF;
    7BA : FF;
    7BB : FF;
    7BC : FF;
    7BD : FF;
    7BE : FF;
    7BF : FF;
    7C0 : FF;
    7C1 : FF;
    7C2 : FF;
    7C3 : FF;
    7C4 : FF;
    7C5 : FF;
    7C6 : FF;
    7C7 : FF;
    7C8 : FF;
    7C9 : FF;
    7CA : FF;
    7CB : FF;
    7CC : FF;
    7CD : FF;
    7CE : FF;
    7CF : FF;
    7D0 : FF;
    7D1 : FF;
    7D2 : FF;
    7D3 : FF;
    7D4 : FF;
    7D5 : FF;
    7D6 : FF;
    7D7 : FF;
    7D8 : FF;
    7D9 : FF;
    7DA : FF;
    7DB : FF;
    7DC : FF;
    7DD : FF;
    7DE : FF;
    7DF : FF;
    7E0 : FF;
    7E1 : FF;
    7E2 : FF;
    7E3 : FF;
    7E4 : FF;
    7E5 : FF;
    7E6 : FF;
    7E7 : FF;
    7E8 : FF;
    7E9 : FF;
    7EA : FF;
    7EB : FF;
    7EC : FF;
    7ED : FF;
    7EE : FF;
    7EF : FF;
    7F0 : FF;
    7F1 : FF;
    7F2 : FF;
    7F3 : FF;
    7F4 : FF;
    7F5 : FF;
    7F6 : FF;
    7F7 : FF;
    7F8 : FF;
    7F9 : FF;
    7FA : FF;
    7FB : FF;
    7FC : FF;
    7FD : 00;
    7FE : 4D;
    7FF : FF;
    800 : 76;
    801 : 00;
    802 : FF;
    803 : E8;
    804 : 00;
    805 : C2;
    806 : FF;
    807 : 4D;
    808 : 00;
    809 : FF;
    80A : C2;
    80B : 00;
    80C : 9D;
    80D : FF;
    80E : 25;
    80F : 27;
    810 : FF;
    811 : 9D;
    812 : 00;
    813 : B4;
    814 : FF;
    815 : FF;
    816 : FF;
    817 : FF;
    818 : FF;
    819 : FF;
    81A : FF;
    81B : FF;
    81C : FF;
    81D : FF;
    81E : FF;
    81F : FF;
    820 : FF;
    821 : FF;
    822 : FF;
    823 : FF;
    824 : FF;
    825 : FF;
    826 : FF;
    827 : FF;
    828 : FF;
    829 : FF;
    82A : FF;
    82B : FF;
    82C : FF;
    82D : FF;
    82E : FF;
    82F : FF;
    830 : FF;
    831 : FF;
    832 : FF;
    833 : FF;
    834 : FF;
    835 : FF;
    836 : FF;
    837 : FF;
    838 : FF;
    839 : FF;
    83A : FF;
    83B : FF;
    83C : FF;
    83D : FF;
    83E : FF;
    83F : FF;
    840 : FF;
    841 : FF;
    842 : FF;
    843 : FF;
    844 : FF;
    845 : FF;
    846 : FF;
    847 : FF;
    848 : FF;
    849 : FF;
    84A : FF;
    84B : FF;
    84C : FF;
    84D : FF;
    84E : FF;
    84F : FF;
    850 : FF;
    851 : FF;
    852 : FF;
    853 : FF;
    854 : FF;
    855 : FF;
    856 : FF;
    857 : FF;
    858 : FF;
    859 : FF;
    85A : FF;
    85B : FF;
    85C : FF;
    85D : FF;
    85E : FF;
    85F : FF;
    860 : FF;
    861 : 00;
    862 : 11;
    863 : 57;
    864 : 1F;
    865 : 00;
    866 : 57;
    867 : 3F;
    868 : 00;
    869 : 35;
    86A : 54;
    86B : 14;
    86C : 00;
    86D : 57;
    86E : 35;
    86F : 00;
    870 : 2A;
    871 : 57;
    872 : 08;
    873 : 08;
    874 : 57;
    875 : 2A;
    876 : 00;
    877 : B4;
    878 : FF;
    879 : FF;
    87A : FF;
    87B : FF;
    87C : FF;
    87D : FF;
    87E : FF;
    87F : FF;
    880 : FF;
    881 : FF;
    882 : FF;
    883 : FF;
    884 : FF;
    885 : FF;
    886 : FF;
    887 : FF;
    888 : FF;
    889 : FF;
    88A : FF;
    88B : FF;
    88C : FF;
    88D : FF;
    88E : FF;
    88F : FF;
    890 : FF;
    891 : FF;
    892 : FF;
    893 : FF;
    894 : FF;
    895 : FF;
    896 : FF;
    897 : FF;
    898 : FF;
    899 : FF;
    89A : FF;
    89B : FF;
    89C : FF;
    89D : FF;
    89E : FF;
    89F : FF;
    8A0 : FF;
    8A1 : FF;
    8A2 : FF;
    8A3 : FF;
    8A4 : FF;
    8A5 : FF;
    8A6 : FF;
    8A7 : FF;
    8A8 : FF;
    8A9 : FF;
    8AA : FF;
    8AB : FF;
    8AC : FF;
    8AD : FF;
    8AE : FF;
    8AF : FF;
    8B0 : FF;
    8B1 : FF;
    8B2 : FF;
    8B3 : FF;
    8B4 : FF;
    8B5 : FF;
    8B6 : FF;
    8B7 : FF;
    8B8 : FF;
    8B9 : FF;
    8BA : FF;
    8BB : FF;
    8BC : FF;
    8BD : FF;
    8BE : FF;
    8BF : FF;
    8C0 : FF;
    8C1 : FF;
    8C2 : FF;
    8C3 : FF;
    8C4 : FF;
    8C5 : 03;
    8C6 : 00;
    8C7 : 00;
    8C8 : 00;
    8C9 : 00;
    8CA : 00;
    8CB : 00;
    8CC : 00;
    8CD : 00;
    8CE : 00;
    8CF : 00;
    8D0 : 00;
    8D1 : 00;
    8D2 : 00;
    8D3 : 00;
    8D4 : 00;
    8D5 : 00;
    8D6 : 00;
    8D7 : 00;
    8D8 : 00;
    8D9 : 00;
    8DA : 00;
    8DB : B4;
    8DC : FF;
    8DD : FF;
    8DE : FF;
    8DF : FF;
    8E0 : FF;
    8E1 : FF;
    8E2 : FF;
    8E3 : FF;
    8E4 : FF;
    8E5 : FF;
    8E6 : FF;
    8E7 : FF;
    8E8 : FF;
    8E9 : FF;
    8EA : FF;
    8EB : FF;
    8EC : FF;
    8ED : FF;
    8EE : FF;
    8EF : FF;
    8F0 : FF;
    8F1 : FF;
    8F2 : FF;
    8F3 : FF;
    8F4 : FF;
    8F5 : FF;
    8F6 : FF;
    8F7 : FF;
    8F8 : FF;
    8F9 : FF;
    8FA : FF;
    8FB : FF;
    8FC : FF;
    8FD : FF;
    8FE : FF;
    8FF : FF;
    900 : FF;
    901 : FF;
    902 : FF;
    903 : FF;
    904 : FF;
    905 : FF;
    906 : FF;
    907 : FF;
    908 : FF;
    909 : FF;
    90A : FF;
    90B : FF;
    90C : FF;
    90D : FF;
    90E : FF;
    90F : FF;
    910 : FF;
    911 : FF;
    912 : FF;
    913 : FF;
    914 : FF;
    915 : FF;
    916 : FF;
    917 : FF;
    918 : FF;
    919 : FF;
    91A : FF;
    91B : FF;
    91C : FF;
    91D : FF;
    91E : FF;
    91F : FF;
    920 : FF;
    921 : FF;
    922 : FF;
    923 : FF;
    924 : FF;
    925 : FF;
    926 : FF;
    927 : FF;
    928 : FF;
    929 : 00;
    92A : 35;
    92B : FF;
    92C : 48;
    92D : 00;
    92E : E8;
    92F : B1;
    930 : 00;
    931 : 33;
    932 : FF;
    933 : 5B;
    934 : 00;
    935 : FB;
    936 : 9A;
    937 : 00;
    938 : 56;
    939 : FF;
    93A : 6E;
    93B : 0C;
    93C : F9;
    93D : 92;
    93E : 00;
    93F : B4;
    940 : FF;
    941 : FF;
    942 : FF;
    943 : FF;
    944 : FF;
    945 : FF;
    946 : FF;
    947 : FF;
    948 : FF;
    949 : FF;
    94A : FF;
    94B : FF;
    94C : FF;
    94D : FF;
    94E : FF;
    94F : FF;
    950 : FF;
    951 : FF;
    952 : FF;
    953 : FF;
    954 : FF;
    955 : FF;
    956 : FF;
    957 : FF;
    958 : FF;
    959 : FF;
    95A : FF;
    95B : FF;
    95C : FF;
    95D : FF;
    95E : FF;
    95F : FF;
    960 : FF;
    961 : FF;
    962 : FF;
    963 : FF;
    964 : FF;
    965 : FF;
    966 : FF;
    967 : FF;
    968 : FF;
    969 : FF;
    96A : FF;
    96B : FF;
    96C : FF;
    96D : FF;
    96E : FF;
    96F : FF;
    970 : FF;
    971 : FF;
    972 : FF;
    973 : FF;
    974 : FF;
    975 : FF;
    976 : FF;
    977 : FF;
    978 : FF;
    979 : FF;
    97A : FF;
    97B : FF;
    97C : FF;
    97D : FF;
    97E : FF;
    97F : FF;
    980 : FF;
    981 : FF;
    982 : FF;
    983 : FF;
    984 : FF;
    985 : FF;
    986 : FF;
    987 : FF;
    988 : FF;
    989 : FF;
    98A : FF;
    98B : FF;
    98C : FF;
    98D : 00;
    98E : 49;
    98F : FF;
    990 : 72;
    991 : 00;
    992 : FF;
    993 : DD;
    994 : 00;
    995 : 72;
    996 : FF;
    997 : 46;
    998 : 00;
    999 : FF;
    99A : FF;
    99B : 00;
    99C : 98;
    99D : FF;
    99E : 1A;
    99F : 22;
    9A0 : FF;
    9A1 : 93;
    9A2 : 00;
    9A3 : B4;
    9A4 : FF;
    9A5 : FF;
    9A6 : FF;
    9A7 : FF;
    9A8 : FF;
    9A9 : FF;
    9AA : FF;
    9AB : FF;
    9AC : FF;
    9AD : FF;
    9AE : FF;
    9AF : FF;
    9B0 : FF;
    9B1 : FF;
    9B2 : FF;
    9B3 : FF;
    9B4 : FF;
    9B5 : FF;
    9B6 : FF;
    9B7 : FF;
    9B8 : FF;
    9B9 : FF;
    9BA : FF;
    9BB : FF;
    9BC : FF;
    9BD : FF;
    9BE : FF;
    9BF : FF;
    9C0 : FF;
    9C1 : FF;
    9C2 : FF;
    9C3 : FF;
    9C4 : FF;
    9C5 : FF;
    9C6 : FF;
    9C7 : FF;
    9C8 : FF;
    9C9 : FF;
    9CA : FF;
    9CB : FF;
    9CC : FF;
    9CD : FF;
    9CE : FF;
    9CF : FF;
    9D0 : FF;
    9D1 : FF;
    9D2 : FF;
    9D3 : FF;
    9D4 : FF;
    9D5 : FF;
    9D6 : FF;
    9D7 : FF;
    9D8 : FF;
    9D9 : FF;
    9DA : FF;
    9DB : FF;
    9DC : FF;
    9DD : FF;
    9DE : FF;
    9DF : FF;
    9E0 : FF;
    9E1 : FF;
    9E2 : FF;
    9E3 : FF;
    9E4 : FF;
    9E5 : FF;
    9E6 : FF;
    9E7 : FF;
    9E8 : FF;
    9E9 : FF;
    9EA : FF;
    9EB : FF;
    9EC : FF;
    9ED : FF;
    9EE : FF;
    9EF : FF;
    9F0 : FF;
    9F1 : 00;
    9F2 : 46;
    9F3 : FF;
    9F4 : 6D;
    9F5 : 00;
    9F6 : FF;
    9F7 : D7;
    9F8 : 00;
    9F9 : 7E;
    9FA : FF;
    9FB : 46;
    9FC : 00;
    9FD : FF;
    9FE : BA;
    9FF : 00;
    A00 : 91;
    A01 : FF;
    A02 : 20;
    A03 : 20;
    A04 : FF;
    A05 : 91;
    A06 : 00;
    A07 : B4;
    A08 : FF;
    A09 : FF;
    A0A : FF;
    A0B : FF;
    A0C : FF;
    A0D : FF;
    A0E : FF;
    A0F : FF;
    A10 : FF;
    A11 : FF;
    A12 : FF;
    A13 : FF;
    A14 : FF;
    A15 : FF;
    A16 : FF;
    A17 : FF;
    A18 : FF;
    A19 : FF;
    A1A : FF;
    A1B : FF;
    A1C : FF;
    A1D : FF;
    A1E : FF;
    A1F : FF;
    A20 : FF;
    A21 : FF;
    A22 : FF;
    A23 : FF;
    A24 : FF;
    A25 : FF;
    A26 : FF;
    A27 : FF;
    A28 : FF;
    A29 : FF;
    A2A : FF;
    A2B : FF;
    A2C : FF;
    A2D : FF;
    A2E : FF;
    A2F : FF;
    A30 : FF;
    A31 : FF;
    A32 : FF;
    A33 : FF;
    A34 : FF;
    A35 : FF;
    A36 : FF;
    A37 : FF;
    A38 : FF;
    A39 : FF;
    A3A : FF;
    A3B : FF;
    A3C : FF;
    A3D : FF;
    A3E : FF;
    A3F : FF;
    A40 : FF;
    A41 : FF;
    A42 : FF;
    A43 : FF;
    A44 : FF;
    A45 : FF;
    A46 : FF;
    A47 : FF;
    A48 : FF;
    A49 : FF;
    A4A : FF;
    A4B : FF;
    A4C : FF;
    A4D : FF;
    A4E : FF;
    A4F : FF;
    A50 : FF;
    A51 : FF;
    A52 : FF;
    A53 : FF;
    A54 : FF;
    A55 : 00;
    A56 : 46;
    A57 : FF;
    A58 : 6D;
    A59 : 00;
    A5A : FF;
    A5B : D7;
    A5C : 00;
    A5D : 81;
    A5E : FF;
    A5F : 46;
    A60 : 00;
    A61 : FF;
    A62 : FF;
    A63 : 00;
    A64 : 91;
    A65 : FF;
    A66 : 20;
    A67 : 20;
    A68 : FF;
    A69 : 91;
    A6A : 00;
    A6B : B4;
    A6C : FF;
    A6D : FF;
    A6E : FF;
    A6F : FF;
    A70 : FF;
    A71 : FF;
    A72 : FF;
    A73 : FF;
    A74 : FF;
    A75 : FF;
    A76 : FF;
    A77 : FF;
    A78 : FF;
    A79 : FF;
    A7A : FF;
    A7B : FF;
    A7C : FF;
    A7D : FF;
    A7E : FF;
    A7F : FF;
    A80 : FF;
    A81 : FF;
    A82 : FF;
    A83 : FF;
    A84 : FF;
    A85 : FF;
    A86 : FF;
    A87 : FF;
    A88 : FF;
    A89 : FF;
    A8A : FF;
    A8B : FF;
    A8C : FF;
    A8D : FF;
    A8E : FF;
    A8F : FF;
    A90 : FF;
    A91 : FF;
    A92 : FF;
    A93 : FF;
    A94 : FF;
    A95 : FF;
    A96 : FF;
    A97 : FF;
    A98 : FF;
    A99 : FF;
    A9A : FF;
    A9B : FF;
    A9C : FF;
    A9D : FF;
    A9E : FF;
    A9F : FF;
    AA0 : FF;
    AA1 : FF;
    AA2 : FF;
    AA3 : FF;
    AA4 : FF;
    AA5 : FF;
    AA6 : FF;
    AA7 : FF;
    AA8 : FF;
    AA9 : FF;
    AAA : FF;
    AAB : FF;
    AAC : FF;
    AAD : FF;
    AAE : FF;
    AAF : FF;
    AB0 : FF;
    AB1 : FF;
    AB2 : FF;
    AB3 : FF;
    AB4 : FF;
    AB5 : FF;
    AB6 : FF;
    AB7 : FF;
    AB8 : FF;
    AB9 : 00;
    ABA : 49;
    ABB : FF;
    ABC : 6E;
    ABD : 00;
    ABE : FF;
    ABF : DA;
    AC0 : 00;
    AC1 : BD;
    AC2 : FF;
    AC3 : 48;
    AC4 : 00;
    AC5 : FF;
    AC6 : B0;
    AC7 : 00;
    AC8 : 93;
    AC9 : FF;
    ACA : 21;
    ACB : 21;
    ACC : FF;
    ACD : 93;
    ACE : 00;
    ACF : B4;
    AD0 : FF;
    AD1 : FF;
    AD2 : FF;
    AD3 : FF;
    AD4 : FF;
    AD5 : FF;
    AD6 : FF;
    AD7 : FF;
    AD8 : FF;
    AD9 : FF;
    ADA : FF;
    ADB : FF;
    ADC : FF;
    ADD : FF;
    ADE : FF;
    ADF : FF;
    AE0 : FF;
    AE1 : FF;
    AE2 : FF;
    AE3 : FF;
    AE4 : FF;
    AE5 : FF;
    AE6 : FF;
    AE7 : FF;
    AE8 : FF;
    AE9 : FF;
    AEA : FF;
    AEB : FF;
    AEC : FF;
    AED : FF;
    AEE : FF;
    AEF : FF;
    AF0 : FF;
    AF1 : FF;
    AF2 : FF;
    AF3 : FF;
    AF4 : FF;
    AF5 : FF;
    AF6 : FF;
    AF7 : FF;
    AF8 : FF;
    AF9 : FF;
    AFA : FF;
    AFB : FF;
    AFC : FF;
    AFD : FF;
    AFE : FF;
    AFF : FF;
    B00 : FF;
    B01 : FF;
    B02 : FF;
    B03 : FF;
    B04 : FF;
    B05 : FF;
    B06 : FF;
    B07 : FF;
    B08 : FF;
    B09 : FF;
    B0A : FF;
    B0B : FF;
    B0C : FF;
    B0D : FF;
    B0E : FF;
    B0F : FF;
    B10 : FF;
    B11 : FF;
    B12 : FF;
    B13 : FF;
    B14 : FF;
    B15 : FF;
    B16 : FF;
    B17 : FF;
    B18 : FF;
    B19 : FF;
    B1A : FF;
    B1B : FF;
    B1C : FF;
    B1D : 00;
    B1E : 33;
    B1F : FF;
    B20 : 6C;
    B21 : 00;
    B22 : FF;
    B23 : D2;
    B24 : 00;
    B25 : 9E;
    B26 : FF;
    B27 : 47;
    B28 : 00;
    B29 : FF;
    B2A : B1;
    B2B : 00;
    B2C : 8F;
    B2D : FF;
    B2E : 22;
    B2F : 22;
    B30 : FF;
    B31 : 8F;
    B32 : 00;
    B33 : B4;
    B34 : FF;
    B35 : FF;
    B36 : FF;
    B37 : FF;
    B38 : FF;
    B39 : FF;
    B3A : FF;
    B3B : FF;
    B3C : FF;
    B3D : FF;
    B3E : FF;
    B3F : FF;
    B40 : FF;
    B41 : FF;
    B42 : FF;
    B43 : FF;
    B44 : FF;
    B45 : FF;
    B46 : FF;
    B47 : FF;
    B48 : FF;
    B49 : FF;
    B4A : FF;
    B4B : FF;
    B4C : FF;
    B4D : FF;
    B4E : FF;
    B4F : FF;
    B50 : FF;
    B51 : FF;
    B52 : FF;
    B53 : FF;
    B54 : FF;
    B55 : FF;
    B56 : FF;
    B57 : FF;
    B58 : FF;
    B59 : FF;
    B5A : FF;
    B5B : FF;
    B5C : FF;
    B5D : FF;
    B5E : FF;
    B5F : FF;
    B60 : FF;
    B61 : FF;
    B62 : FF;
    B63 : FF;
    B64 : FF;
    B65 : FF;
    B66 : FF;
    B67 : FF;
    B68 : FF;
    B69 : FF;
    B6A : FF;
    B6B : FF;
    B6C : FF;
    B6D : FF;
    B6E : FF;
    B6F : FF;
    B70 : FF;
    B71 : FF;
    B72 : FF;
    B73 : FF;
    B74 : FF;
    B75 : FF;
    B76 : FF;
    B77 : FF;
    B78 : FF;
    B79 : FF;
    B7A : FF;
    B7B : FF;
    B7C : FF;
    B7D : FF;
    B7E : FF;
    B7F : FF;
    B80 : FF;
    B81 : 03;
    B82 : 00;
    B83 : 00;
    B84 : 00;
    B85 : 00;
    B86 : 00;
    B87 : 00;
    B88 : 00;
    B89 : 00;
    B8A : 00;
    B8B : 00;
    B8C : 00;
    B8D : 00;
    B8E : 00;
    B8F : 00;
    B90 : 00;
    B91 : 00;
    B92 : 00;
    B93 : 00;
    B94 : 00;
    B95 : 00;
    B96 : 00;
    B97 : B4;
    B98 : FF;
    B99 : FF;
    B9A : FF;
    B9B : FF;
    B9C : FF;
    B9D : FF;
    B9E : FF;
    B9F : FF;
    BA0 : FF;
    BA1 : FF;
    BA2 : FF;
    BA3 : FF;
    BA4 : FF;
    BA5 : FF;
    BA6 : FF;
    BA7 : FF;
    BA8 : FF;
    BA9 : FF;
    BAA : FF;
    BAB : FF;
    BAC : FF;
    BAD : FF;
    BAE : FF;
    BAF : FF;
    BB0 : FF;
    BB1 : FF;
    BB2 : FF;
    BB3 : FF;
    BB4 : FF;
    BB5 : FF;
    BB6 : FF;
    BB7 : FF;
    BB8 : FF;
    BB9 : FF;
    BBA : FF;
    BBB : FF;
    BBC : FF;
    BBD : FF;
    BBE : FF;
    BBF : FF;
    BC0 : FF;
    BC1 : FF;
    BC2 : FF;
    BC3 : FF;
    BC4 : FF;
    BC5 : FF;
    BC6 : FF;
    BC7 : FF;
    BC8 : FF;
    BC9 : FF;
    BCA : FF;
    BCB : FF;
    BCC : FF;
    BCD : FF;
    BCE : FF;
    BCF : FF;
    BD0 : FF;
    BD1 : FF;
    BD2 : FF;
    BD3 : FF;
    BD4 : FF;
    BD5 : FF;
    BD6 : FF;
    BD7 : FF;
    BD8 : FF;
    BD9 : FF;
    BDA : FF;
    BDB : FF;
    BDC : FF;
    BDD : FF;
    BDE : FF;
    BDF : FF;
    BE0 : FF;
    BE1 : FF;
    BE2 : FF;
    BE3 : FF;
    BE4 : FF;
    BE5 : 00;
    BE6 : 0F;
    BE7 : 7E;
    BE8 : 09;
    BE9 : 00;
    BEA : 50;
    BEB : 2D;
    BEC : 00;
    BED : 09;
    BEE : 80;
    BEF : 00;
    BF0 : 00;
    BF1 : 72;
    BF2 : 20;
    BF3 : 00;
    BF4 : 0B;
    BF5 : 80;
    BF6 : 00;
    BF7 : 00;
    BF8 : 48;
    BF9 : 19;
    BFA : 00;
    BFB : B4;
    BFC : FF;
    BFD : FF;
    BFE : FF;
    BFF : FF;
    C00 : FF;
    C01 : FF;
    C02 : FF;
    C03 : FF;
    C04 : FF;
    C05 : FF;
    C06 : FF;
    C07 : FF;
    C08 : FF;
    C09 : FF;
    C0A : FF;
    C0B : FF;
    C0C : FF;
    C0D : FF;
    C0E : FF;
    C0F : FF;
    C10 : FF;
    C11 : FF;
    C12 : FF;
    C13 : FF;
    C14 : FF;
    C15 : FF;
    C16 : FF;
    C17 : FF;
    C18 : FF;
    C19 : FF;
    C1A : FF;
    C1B : FF;
    C1C : FF;
    C1D : FF;
    C1E : FF;
    C1F : FF;
    C20 : FF;
    C21 : FF;
    C22 : FF;
    C23 : FF;
    C24 : FF;
    C25 : FF;
    C26 : FF;
    C27 : FF;
    C28 : FF;
    C29 : FF;
    C2A : FF;
    C2B : FF;
    C2C : FF;
    C2D : FF;
    C2E : FF;
    C2F : FF;
    C30 : FF;
    C31 : FF;
    C32 : FF;
    C33 : FF;
    C34 : FF;
    C35 : FF;
    C36 : FF;
    C37 : FF;
    C38 : FF;
    C39 : FF;
    C3A : FF;
    C3B : FF;
    C3C : FF;
    C3D : FF;
    C3E : FF;
    C3F : FF;
    C40 : FF;
    C41 : FF;
    C42 : FF;
    C43 : FF;
    C44 : FF;
    C45 : FF;
    C46 : FF;
    C47 : FF;
    C48 : F7;
    C49 : 00;
    C4A : 51;
    C4B : FF;
    C4C : 78;
    C4D : 00;
    C4E : FF;
    C4F : EA;
    C50 : 00;
    C51 : 78;
    C52 : FF;
    C53 : 47;
    C54 : 00;
    C55 : FF;
    C56 : C4;
    C57 : 00;
    C58 : 96;
    C59 : FF;
    C5A : 2C;
    C5B : 00;
    C5C : FF;
    C5D : 9F;
    C5E : 00;
    C5F : B4;
    C60 : FF;
    C61 : FF;
    C62 : FF;
    C63 : FF;
    C64 : FF;
    C65 : FF;
    C66 : FF;
    C67 : FF;
    C68 : FF;
    C69 : FF;
    C6A : FF;
    C6B : FF;
    C6C : FF;
    C6D : FF;
    C6E : FF;
    C6F : FF;
    C70 : FF;
    C71 : FF;
    C72 : FF;
    C73 : FF;
    C74 : FF;
    C75 : FF;
    C76 : FF;
    C77 : FF;
    C78 : FF;
    C79 : FF;
    C7A : FF;
    C7B : FF;
    C7C : FF;
    C7D : FF;
    C7E : FF;
    C7F : FF;
    C80 : FF;
    C81 : FF;
    C82 : FF;
    C83 : FF;
    C84 : FF;
    C85 : FF;
    C86 : FF;
    C87 : FF;
    C88 : FF;
    C89 : FF;
    C8A : FF;
    C8B : FF;
    C8C : FF;
    C8D : FF;
    C8E : FF;
    C8F : FF;
    C90 : FF;
    C91 : FF;
    C92 : FF;
    C93 : FF;
    C94 : FF;
    C95 : FF;
    C96 : FF;
    C97 : FF;
    C98 : FF;
    C99 : FF;
    C9A : FF;
    C9B : FF;
    C9C : FF;
    C9D : FF;
    C9E : FF;
    C9F : FF;
    CA0 : FF;
    CA1 : FF;
    CA2 : FF;
    CA3 : FF;
    CA4 : FF;
    CA5 : FF;
    CA6 : FF;
    CA7 : FF;
    CA8 : FF;
    CA9 : FF;
    CAA : FF;
    CAB : FF;
    CAC : FF;
    CAD : 00;
    CAE : 49;
    CAF : FF;
    CB0 : 6D;
    CB1 : 00;
    CB2 : FF;
    CB3 : D7;
    CB4 : 00;
    CB5 : 6D;
    CB6 : FF;
    CB7 : 47;
    CB8 : 00;
    CB9 : FF;
    CBA : B4;
    CBB : 00;
    CBC : 92;
    CBD : FF;
    CBE : 20;
    CBF : 25;
    CC0 : FF;
    CC1 : 91;
    CC2 : 00;
    CC3 : B4;
    CC4 : FF;
    CC5 : FF;
    CC6 : FF;
    CC7 : FF;
    CC8 : FF;
    CC9 : FF;
    CCA : FF;
    CCB : FF;
    CCC : FF;
    CCD : FF;
    CCE : FF;
    CCF : FF;
    CD0 : FF;
    CD1 : FF;
    CD2 : FF;
    CD3 : FF;
    CD4 : FF;
    CD5 : FF;
    CD6 : FF;
    CD7 : FF;
    CD8 : FF;
    CD9 : FF;
    CDA : FF;
    CDB : FF;
    CDC : FF;
    CDD : FF;
    CDE : FF;
    CDF : FF;
    CE0 : FF;
    CE1 : FF;
    CE2 : FF;
    CE3 : FF;
    CE4 : FF;
    CE5 : FF;
    CE6 : FF;
    CE7 : FF;
    CE8 : FF;
    CE9 : FF;
    CEA : FF;
    CEB : FF;
    CEC : FF;
    CED : FF;
    CEE : FF;
    CEF : FF;
    CF0 : FF;
    CF1 : FF;
    CF2 : FF;
    CF3 : FF;
    CF4 : FF;
    CF5 : FF;
    CF6 : FF;
    CF7 : FF;
    CF8 : FF;
    CF9 : FF;
    CFA : FF;
    CFB : FF;
    CFC : FF;
    CFD : FF;
    CFE : FF;
    CFF : FF;
    D00 : FF;
    D01 : FF;
    D02 : FF;
    D03 : FF;
    D04 : FF;
    D05 : FF;
    D06 : FF;
    D07 : FF;
    D08 : FF;
    D09 : FF;
    D0A : FF;
    D0B : FF;
    D0C : FF;
    D0D : FF;
    D0E : FF;
    D0F : FF;
    D10 : FF;
    D11 : 00;
    D12 : 46;
    D13 : FF;
    D14 : 6D;
    D15 : 00;
    D16 : FF;
    D17 : D7;
    D18 : 00;
    D19 : 6D;
    D1A : FF;
    D1B : 46;
    D1C : 00;
    D1D : FF;
    D1E : B4;
    D1F : 00;
    D20 : 91;
    D21 : FF;
    D22 : 20;
    D23 : 20;
    D24 : FF;
    D25 : 91;
    D26 : 00;
    D27 : B4;
    D28 : FF;
    D29 : FF;
    D2A : FF;
    D2B : FF;
    D2C : FF;
    D2D : FF;
    D2E : FF;
    D2F : FF;
    D30 : FF;
    D31 : FF;
    D32 : FF;
    D33 : FF;
    D34 : FF;
    D35 : FF;
    D36 : FF;
    D37 : FF;
    D38 : FF;
    D39 : FF;
    D3A : FF;
    D3B : FF;
    D3C : FF;
    D3D : FF;
    D3E : FF;
    D3F : FF;
    D40 : FF;
    D41 : FF;
    D42 : FF;
    D43 : FF;
    D44 : FF;
    D45 : FF;
    D46 : FF;
    D47 : FF;
    D48 : FF;
    D49 : FF;
    D4A : FF;
    D4B : FF;
    D4C : FF;
    D4D : FF;
    D4E : FF;
    D4F : FF;
    D50 : FF;
    D51 : FF;
    D52 : FF;
    D53 : FF;
    D54 : FF;
    D55 : FF;
    D56 : FF;
    D57 : FF;
    D58 : FF;
    D59 : FF;
    D5A : FF;
    D5B : FF;
    D5C : FF;
    D5D : FF;
    D5E : FF;
    D5F : FF;
    D60 : FF;
    D61 : FF;
    D62 : FF;
    D63 : FF;
    D64 : FF;
    D65 : FF;
    D66 : FF;
    D67 : FF;
    D68 : FF;
    D69 : FF;
    D6A : FF;
    D6B : FF;
    D6C : FF;
    D6D : FF;
    D6E : FF;
    D6F : FF;
    D70 : FF;
    D71 : FF;
    D72 : FF;
    D73 : FF;
    D74 : FF;
    D75 : 00;
    D76 : 46;
    D77 : FF;
    D78 : 6D;
    D79 : 00;
    D7A : FF;
    D7B : D7;
    D7C : 00;
    D7D : 6D;
    D7E : FF;
    D7F : 46;
    D80 : 00;
    D81 : FF;
    D82 : B4;
    D83 : 00;
    D84 : 91;
    D85 : FF;
    D86 : 20;
    D87 : 20;
    D88 : FF;
    D89 : 91;
    D8A : 00;
    D8B : B4;
    D8C : FF;
    D8D : FF;
    D8E : FF;
    D8F : FF;
    D90 : FF;
    D91 : FF;
    D92 : FF;
    D93 : FF;
    D94 : FF;
    D95 : FF;
    D96 : FF;
    D97 : FF;
    D98 : FF;
    D99 : FF;
    D9A : FF;
    D9B : FF;
    D9C : FF;
    D9D : FF;
    D9E : FF;
    D9F : FF;
    DA0 : FF;
    DA1 : FF;
    DA2 : FF;
    DA3 : FF;
    DA4 : FF;
    DA5 : FF;
    DA6 : FF;
    DA7 : FF;
    DA8 : FF;
    DA9 : FF;
    DAA : FF;
    DAB : FF;
    DAC : FF;
    DAD : FF;
    DAE : FF;
    DAF : FF;
    DB0 : FF;
    DB1 : FF;
    DB2 : FF;
    DB3 : FF;
    DB4 : FF;
    DB5 : FF;
    DB6 : FF;
    DB7 : FF;
    DB8 : FF;
    DB9 : FF;
    DBA : FF;
    DBB : FF;
    DBC : FF;
    DBD : FF;
    DBE : FF;
    DBF : FF;
    DC0 : FF;
    DC1 : FF;
    DC2 : FF;
    DC3 : FF;
    DC4 : FF;
    DC5 : FF;
    DC6 : FF;
    DC7 : FF;
    DC8 : FF;
    DC9 : FF;
    DCA : FF;
    DCB : FF;
    DCC : FF;
    DCD : FF;
    DCE : FF;
    DCF : FF;
    DD0 : FF;
    DD1 : FF;
    DD2 : FF;
    DD3 : FF;
    DD4 : FF;
    DD5 : FF;
    DD6 : FF;
    DD7 : FF;
    DD8 : FF;
    DD9 : 00;
    DDA : 4F;
    DDB : FF;
    DDC : 78;
    DDD : 00;
    DDE : FF;
    DDF : EA;
    DE0 : 00;
    DE1 : 78;
    DE2 : FF;
    DE3 : 4F;
    DE4 : 00;
    DE5 : FF;
    DE6 : C5;
    DE7 : 00;
    DE8 : 9F;
    DE9 : FF;
    DEA : 25;
    DEB : 25;
    DEC : FF;
    DED : 9F;
    DEE : 00;
    DEF : B4;
    DF0 : FF;
    DF1 : FF;
    DF2 : FF;
    DF3 : FF;
    DF4 : FF;
    DF5 : FF;
    DF6 : FF;
    DF7 : FF;
    DF8 : FF;
    DF9 : FF;
    DFA : FF;
    DFB : FF;
    DFC : FF;
    DFD : FF;
    DFE : FF;
    DFF : FF;
    E00 : FF;
    E01 : FF;
    E02 : FF;
    E03 : FF;
    E04 : FF;
    E05 : FF;
    E06 : FF;
    E07 : FF;
    E08 : FF;
    E09 : FF;
    E0A : FF;
    E0B : FF;
    E0C : FF;
    E0D : FF;
    E0E : FF;
    E0F : FF;
    E10 : FF;
    E11 : FF;
    E12 : FF;
    E13 : FF;
    E14 : FF;
    E15 : FF;
    E16 : FF;
    E17 : FF;
    E18 : FF;
    E19 : FF;
    E1A : FF;
    E1B : FF;
    E1C : FF;
    E1D : FF;
    E1E : FF;
    E1F : FF;
    E20 : FF;
    E21 : FF;
    E22 : FF;
    E23 : FF;
    E24 : FF;
    E25 : FF;
    E26 : FF;
    E27 : FF;
    E28 : FF;
    E29 : FF;
    E2A : FF;
    E2B : FF;
    E2C : FF;
    E2D : FF;
    E2E : FF;
    E2F : FF;
    E30 : FF;
    E31 : FF;
    E32 : FF;
    E33 : FF;
    E34 : FF;
    E35 : FF;
    E36 : FF;
    E37 : FF;
    E38 : FF;
    E39 : FF;
    E3A : FF;
    E3B : FF;
    E3C : FF;
    E3D : 00;
    E3E : 07;
    E3F : 2F;
    E40 : 10;
    E41 : 00;
    E42 : 2F;
    E43 : 22;
    E44 : 00;
    E45 : 10;
    E46 : 2F;
    E47 : 09;
    E48 : 00;
    E49 : 2F;
    E4A : 1C;
    E4B : 00;
    E4C : 16;
    E4D : 2F;
    E4E : 03;
    E4F : 03;
    E50 : 2F;
    E51 : 16;
    E52 : 00;
    E53 : B4;
    E54 : FF;
    E55 : FF;
    E56 : FF;
    E57 : FF;
    E58 : FF;
    E59 : FF;
    E5A : FF;
    E5B : FF;
    E5C : FF;
    E5D : FF;
    E5E : FF;
    E5F : FF;
    E60 : FF;
    E61 : FF;
    E62 : FF;
    E63 : FF;
    E64 : FF;
    E65 : FF;
    E66 : FF;
    E67 : FF;
    E68 : FF;
    E69 : FF;
    E6A : FF;
    E6B : FF;
    E6C : FF;
    E6D : FF;
    E6E : FF;
    E6F : FF;
    E70 : FF;
    E71 : FF;
    E72 : FF;
    E73 : FF;
    E74 : FF;
    E75 : FF;
    E76 : FF;
    E77 : FF;
    E78 : FF;
    E79 : FF;
    E7A : FF;
    E7B : FF;
    E7C : FF;
    E7D : FF;
    E7E : FF;
    E7F : FF;
    E80 : FF;
    E81 : FF;
    E82 : FF;
    E83 : FF;
    E84 : FF;
    E85 : FF;
    E86 : FF;
    E87 : FF;
    E88 : FF;
    E89 : FF;
    E8A : FF;
    E8B : FF;
    E8C : FF;
    E8D : FF;
    E8E : FF;
    E8F : FF;
    E90 : FF;
    E91 : FF;
    E92 : FF;
    E93 : FF;
    E94 : FF;
    E95 : FF;
    E96 : FF;
    E97 : FF;
    E98 : FF;
    E99 : FF;
    E9A : FF;
    E9B : FF;
    E9C : FF;
    E9D : FF;
    E9E : FF;
    E9F : FF;
    EA0 : FF;
    EA1 : 03;
    EA2 : 00;
    EA3 : 00;
    EA4 : 00;
    EA5 : 00;
    EA6 : 00;
    EA7 : 00;
    EA8 : 00;
    EA9 : 00;
    EAA : 00;
    EAB : 00;
    EAC : 00;
    EAD : 00;
    EAE : 00;
    EAF : 00;
    EB0 : 00;
    EB1 : 00;
    EB2 : 00;
    EB3 : 00;
    EB4 : 00;
    EB5 : 00;
    EB6 : 00;
    EB7 : B4;
    EB8 : FF;
    EB9 : FF;
    EBA : FF;
    EBB : FF;
    EBC : FF;
    EBD : FF;
    EBE : FF;
    EBF : FF;
    EC0 : FF;
    EC1 : FF;
    EC2 : FF;
    EC3 : FF;
    EC4 : FF;
    EC5 : FF;
    EC6 : FF;
    EC7 : FF;
    EC8 : FF;
    EC9 : FF;
    ECA : FF;
    ECB : FF;
    ECC : FF;
    ECD : FF;
    ECE : FF;
    ECF : FF;
    ED0 : FF;
    ED1 : FF;
    ED2 : FF;
    ED3 : FF;
    ED4 : FF;
    ED5 : FF;
    ED6 : FF;
    ED7 : FF;
    ED8 : FF;
    ED9 : FF;
    EDA : FF;
    EDB : FF;
    EDC : FF;
    EDD : FF;
    EDE : FF;
    EDF : FF;
    EE0 : FF;
    EE1 : FF;
    EE2 : FF;
    EE3 : FF;
    EE4 : FF;
    EE5 : FF;
    EE6 : FF;
    EE7 : FF;
    EE8 : FF;
    EE9 : FF;
    EEA : FF;
    EEB : FF;
    EEC : FF;
    EED : FF;
    EEE : FF;
    EEF : FF;
    EF0 : FF;
    EF1 : FF;
    EF2 : FF;
    EF3 : FF;
    EF4 : FF;
    EF5 : FF;
    EF6 : FF;
    EF7 : FF;
    EF8 : FF;
    EF9 : FF;
    EFA : FF;
    EFB : FF;
    EFC : FF;
    EFD : FF;
    EFE : FF;
    EFF : FF;
    F00 : FF;
    F01 : FF;
    F02 : FF;
    F03 : FF;
    F04 : FF;
    F05 : 00;
    F06 : 3F;
    F07 : FF;
    F08 : 43;
    F09 : 00;
    F0A : FF;
    F0B : BC;
    F0C : 00;
    F0D : 43;
    F0E : FF;
    F0F : 25;
    F10 : 00;
    F11 : FF;
    F12 : BA;
    F13 : 00;
    F14 : 6B;
    F15 : FF;
    F16 : 07;
    F17 : 00;
    F18 : FF;
    F19 : 82;
    F1A : 00;
    F1B : B4;
    F1C : FF;
    F1D : FF;
    F1E : FF;
    F1F : FF;
    F20 : FF;
    F21 : FF;
    F22 : FF;
    F23 : FF;
    F24 : FF;
    F25 : FF;
    F26 : FF;
    F27 : FF;
    F28 : FF;
    F29 : FF;
    F2A : FF;
    F2B : FF;
    F2C : FF;
    F2D : FF;
    F2E : FF;
    F2F : FF;
    F30 : FF;
    F31 : FF;
    F32 : FF;
    F33 : FF;
    F34 : FF;
    F35 : FF;
    F36 : FF;
    F37 : FF;
    F38 : FF;
    F39 : FF;
    F3A : FF;
    F3B : FF;
    F3C : FF;
    F3D : FF;
    F3E : FF;
    F3F : FF;
    F40 : FF;
    F41 : FF;
    F42 : FF;
    F43 : FF;
    F44 : FF;
    F45 : FF;
    F46 : FF;
    F47 : FF;
    F48 : FF;
    F49 : FF;
    F4A : FF;
    F4B : FF;
    F4C : FF;
    F4D : FF;
    F4E : FF;
    F4F : FF;
    F50 : FF;
    F51 : FF;
    F52 : FF;
    F53 : FF;
    F54 : FF;
    F55 : FF;
    F56 : FF;
    F57 : FF;
    F58 : FF;
    F59 : FF;
    F5A : FF;
    F5B : FF;
    F5C : FF;
    F5D : FF;
    F5E : FF;
    F5F : FF;
    F60 : FF;
    F61 : FF;
    F62 : FF;
    F63 : FF;
    F64 : FF;
    F65 : FF;
    F66 : FF;
    F67 : FF;
    F68 : FF;
    F69 : 00;
    F6A : 49;
    F6B : FF;
    F6C : 72;
    F6D : 00;
    F6E : FF;
    F6F : DC;
    F70 : 00;
    F71 : 72;
    F72 : FF;
    F73 : 4A;
    F74 : 00;
    F75 : FF;
    F76 : B6;
    F77 : 00;
    F78 : 96;
    F79 : FF;
    F7A : 23;
    F7B : 24;
    F7C : FF;
    F7D : 94;
    F7E : 00;
    F7F : B4;
    F80 : FF;
    F81 : FF;
    F82 : FF;
    F83 : FF;
    F84 : FF;
    F85 : FF;
    F86 : FF;
    F87 : FF;
    F88 : FF;
    F89 : FF;
    F8A : FF;
    F8B : FF;
    F8C : FF;
    F8D : FF;
    F8E : FF;
    F8F : FF;
    F90 : FF;
    F91 : FF;
    F92 : FF;
    F93 : FF;
    F94 : FF;
    F95 : FF;
    F96 : FF;
    F97 : FF;
    F98 : FF;
    F99 : FF;
    F9A : FF;
    F9B : FF;
    F9C : FF;
    F9D : FF;
    F9E : FF;
    F9F : FF;
    FA0 : FF;
    FA1 : FF;
    FA2 : FF;
    FA3 : FF;
    FA4 : FF;
    FA5 : FF;
    FA6 : FF;
    FA7 : FF;
    FA8 : FF;
    FA9 : FF;
    FAA : FF;
    FAB : FF;
    FAC : FF;
    FAD : FF;
    FAE : FF;
    FAF : FF;
    FB0 : FF;
    FB1 : FF;
    FB2 : FF;
    FB3 : FF;
    FB4 : FF;
    FB5 : FF;
    FB6 : FF;
    FB7 : FF;
    FB8 : FF;
    FB9 : FF;
    FBA : FF;
    FBB : FF;
    FBC : FF;
    FBD : FF;
    FBE : FF;
    FBF : FF;
    FC0 : FF;
    FC1 : FF;
    FC2 : FF;
    FC3 : FF;
    FC4 : FF;
    FC5 : FF;
    FC6 : FF;
    FC7 : FF;
    FC8 : FF;
    FC9 : FF;
    FCA : FF;
    FCB : FF;
    FCC : FF;
    FCD : 00;
    FCE : 48;
    FCF : FF;
    FD0 : 6D;
    FD1 : 00;
    FD2 : FF;
    FD3 : D7;
    FD4 : 00;
    FD5 : 6D;
    FD6 : FF;
    FD7 : 46;
    FD8 : 00;
    FD9 : FF;
    FDA : B4;
    FDB : 00;
    FDC : 91;
    FDD : FF;
    FDE : 20;
    FDF : 20;
    FE0 : FF;
    FE1 : 91;
    FE2 : 00;
    FE3 : B4;
    FE4 : FF;
    FE5 : FF;
    FE6 : FF;
    FE7 : FF;
    FE8 : FF;
    FE9 : FF;
    FEA : FF;
    FEB : FF;
    FEC : FF;
    FED : FF;
    FEE : FF;
    FEF : FF;
    FF0 : FF;
    FF1 : FF;
    FF2 : FF;
    FF3 : FF;
    FF4 : FF;
    FF5 : FF;
    FF6 : FF;
    FF7 : FF;
    FF8 : FF;
    FF9 : FF;
    FFA : FF;
    FFB : FF;
    FFC : FF;
    FFD : FF;
    FFE : FF;
    FFF : FF;
    1000 : FF;
    1001 : FF;
    1002 : FF;
    1003 : FF;
    1004 : FF;
    1005 : FF;
    1006 : FF;
    1007 : FF;
    1008 : FF;
    1009 : FF;
    100A : FF;
    100B : FF;
    100C : FF;
    100D : FF;
    100E : FF;
    100F : FF;
    1010 : FF;
    1011 : FF;
    1012 : FF;
    1013 : FF;
    1014 : FF;
    1015 : FF;
    1016 : FF;
    1017 : FF;
    1018 : FF;
    1019 : FF;
    101A : FF;
    101B : FF;
    101C : FF;
    101D : FF;
    101E : FF;
    101F : FF;
    1020 : FF;
    1021 : FF;
    1022 : FF;
    1023 : FF;
    1024 : FF;
    1025 : FF;
    1026 : FF;
    1027 : FF;
    1028 : FF;
    1029 : FF;
    102A : FF;
    102B : FF;
    102C : FF;
    102D : FF;
    102E : FF;
    102F : FF;
    1030 : FF;
    1031 : 00;
    1032 : 49;
    1033 : FF;
    1034 : 6D;
    1035 : 00;
    1036 : FF;
    1037 : D7;
    1038 : 00;
    1039 : 6D;
    103A : FF;
    103B : 46;
    103C : 00;
    103D : FF;
    103E : B4;
    103F : 00;
    1040 : 91;
    1041 : FF;
    1042 : 20;
    1043 : 20;
    1044 : FF;
    1045 : 91;
    1046 : 00;
    1047 : B4;
    1048 : FF;
    1049 : FF;
    104A : FF;
    104B : FF;
    104C : FF;
    104D : FF;
    104E : FF;
    104F : FF;
    1050 : FF;
    1051 : FF;
    1052 : FF;
    1053 : FF;
    1054 : FF;
    1055 : FF;
    1056 : FF;
    1057 : FF;
    1058 : FF;
    1059 : FF;
    105A : FF;
    105B : FF;
    105C : FF;
    105D : FF;
    105E : FF;
    105F : FF;
    1060 : FF;
    1061 : FF;
    1062 : FF;
    1063 : FF;
    1064 : FF;
    1065 : FF;
    1066 : FF;
    1067 : FF;
    1068 : FF;
    1069 : FF;
    106A : FF;
    106B : FF;
    106C : FF;
    106D : FF;
    106E : FF;
    106F : FF;
    1070 : FF;
    1071 : FF;
    1072 : FF;
    1073 : FF;
    1074 : FF;
    1075 : FF;
    1076 : FF;
    1077 : FF;
    1078 : FF;
    1079 : FF;
    107A : FF;
    107B : FF;
    107C : FF;
    107D : FF;
    107E : FF;
    107F : FF;
    1080 : FF;
    1081 : FF;
    1082 : FF;
    1083 : FF;
    1084 : FF;
    1085 : FF;
    1086 : FF;
    1087 : FF;
    1088 : FF;
    1089 : FF;
    108A : FF;
    108B : FF;
    108C : FF;
    108D : FF;
    108E : FF;
    108F : FF;
    1090 : FF;
    1091 : FF;
    1092 : FF;
    1093 : FF;
    1094 : FF;
    1095 : 00;
    1096 : 4B;
    1097 : FF;
    1098 : 73;
    1099 : 00;
    109A : FF;
    109B : E2;
    109C : 00;
    109D : 73;
    109E : FF;
    109F : 4B;
    10A0 : 00;
    10A1 : FF;
    10A2 : BE;
    10A3 : 00;
    10A4 : 99;
    10A5 : FF;
    10A6 : 23;
    10A7 : 23;
    10A8 : FF;
    10A9 : 99;
    10AA : 00;
    10AB : B4;
    10AC : FF;
    10AD : FF;
    10AE : FF;
    10AF : FF;
    10B0 : FF;
    10B1 : FF;
    10B2 : FF;
    10B3 : FF;
    10B4 : FF;
    10B5 : FF;
    10B6 : FF;
    10B7 : FF;
    10B8 : FF;
    10B9 : FF;
    10BA : FF;
    10BB : FF;
    10BC : FF;
    10BD : FF;
    10BE : FF;
    10BF : FF;
    10C0 : FF;
    10C1 : FF;
    10C2 : FF;
    10C3 : FF;
    10C4 : FF;
    10C5 : FF;
    10C6 : FF;
    10C7 : FF;
    10C8 : FF;
    10C9 : FF;
    10CA : FF;
    10CB : FF;
    10CC : FF;
    10CD : FF;
    10CE : FF;
    10CF : FF;
    10D0 : FF;
    10D1 : FF;
    10D2 : FF;
    10D3 : FF;
    10D4 : FF;
    10D5 : FF;
    10D6 : FF;
    10D7 : FF;
    10D8 : FF;
    10D9 : FF;
    10DA : FF;
    10DB : FF;
    10DC : FF;
    10DD : FF;
    10DE : FF;
    10DF : FF;
    10E0 : FF;
    10E1 : FF;
    10E2 : FF;
    10E3 : FF;
    10E4 : FF;
    10E5 : FF;
    10E6 : FF;
    10E7 : FF;
    10E8 : FF;
    10E9 : FF;
    10EA : FF;
    10EB : FF;
    10EC : FF;
    10ED : FF;
    10EE : FF;
    10EF : FF;
    10F0 : FF;
    10F1 : FF;
    10F2 : FF;
    10F3 : FF;
    10F4 : FF;
    10F5 : FF;
    10F6 : FF;
    10F7 : FF;
    10F8 : FF;
    10F9 : 00;
    10FA : 26;
    10FB : A6;
    10FC : 3E;
    10FD : 00;
    10FE : A6;
    10FF : 7A;
    1100 : 00;
    1101 : 3E;
    1102 : A6;
    1103 : 28;
    1104 : 00;
    1105 : A6;
    1106 : 66;
    1107 : 00;
    1108 : 52;
    1109 : A6;
    110A : 12;
    110B : 12;
    110C : A6;
    110D : 52;
    110E : 00;
    110F : B4;
    1110 : FF;
    1111 : FF;
    1112 : FF;
    1113 : FF;
    1114 : FF;
    1115 : FF;
    1116 : FF;
    1117 : FF;
    1118 : FF;
    1119 : FF;
    111A : FF;
    111B : FF;
    111C : FF;
    111D : FF;
    111E : FF;
    111F : FF;
    1120 : FF;
    1121 : FF;
    1122 : FF;
    1123 : FF;
    1124 : FF;
    1125 : FF;
    1126 : FF;
    1127 : FF;
    1128 : FF;
    1129 : FF;
    112A : FF;
    112B : FF;
    112C : FF;
    112D : FF;
    112E : FF;
    112F : FF;
    1130 : FF;
    1131 : FF;
    1132 : FF;
    1133 : FF;
    1134 : FF;
    1135 : FF;
    1136 : FF;
    1137 : FF;
    1138 : FF;
    1139 : FF;
    113A : FF;
    113B : FF;
    113C : FF;
    113D : FF;
    113E : FF;
    113F : FF;
    1140 : FF;
    1141 : FF;
    1142 : FF;
    1143 : FF;
    1144 : FF;
    1145 : FF;
    1146 : FF;
    1147 : FF;
    1148 : FF;
    1149 : FF;
    114A : FF;
    114B : FF;
    114C : FF;
    114D : FF;
    114E : FF;
    114F : FF;
    1150 : FF;
    1151 : FF;
    1152 : FF;
    1153 : FF;
    1154 : FF;
    1155 : FF;
    1156 : FF;
    1157 : FF;
    1158 : FF;
    1159 : FF;
    115A : FF;
    115B : FF;
    115C : FF;
    115D : 03;
    115E : 00;
    115F : 00;
    1160 : 00;
    1161 : 00;
    1162 : 00;
    1163 : 00;
    1164 : 00;
    1165 : 00;
    1166 : 00;
    1167 : 00;
    1168 : 00;
    1169 : 00;
    116A : 00;
    116B : 00;
    116C : 00;
    116D : 00;
    116E : 00;
    116F : 00;
    1170 : 00;
    1171 : 00;
    1172 : 00;
    1173 : B4;
    1174 : FF;
    1175 : FF;
    1176 : FF;
    1177 : FF;
    1178 : FF;
    1179 : FF;
    117A : FF;
    117B : FF;
    117C : FF;
    117D : FF;
    117E : FF;
    117F : FF;
    1180 : FF;
    1181 : FF;
    1182 : FF;
    1183 : FF;
    1184 : FF;
    1185 : FF;
    1186 : FF;
    1187 : FF;
    1188 : FF;
    1189 : FF;
    118A : FF;
    118B : FF;
    118C : FF;
    118D : FF;
    118E : FF;
    118F : FF;
    1190 : FF;
    1191 : FF;
    1192 : FF;
    1193 : FF;
    1194 : FF;
    1195 : FF;
    1196 : FF;
    1197 : FF;
    1198 : FF;
    1199 : FF;
    119A : FF;
    119B : FF;
    119C : FF;
    119D : FF;
    119E : FF;
    119F : FF;
    11A0 : FF;
    11A1 : FF;
    11A2 : FF;
    11A3 : FF;
    11A4 : FF;
    11A5 : FF;
    11A6 : FF;
    11A7 : FF;
    11A8 : FF;
    11A9 : FF;
    11AA : FF;
    11AB : FF;
    11AC : FF;
    11AD : FF;
    11AE : FF;
    11AF : FF;
    11B0 : FF;
    11B1 : FF;
    11B2 : FF;
    11B3 : FF;
    11B4 : FF;
    11B5 : FF;
    11B6 : FF;
    11B7 : FF;
    11B8 : FF;
    11B9 : FF;
    11BA : FF;
    11BB : FF;
    11BC : FF;
    11BD : FF;
    11BE : FF;
    11BF : FF;
    11C0 : FF;
    11C1 : 00;
    11C2 : 1E;
    11C3 : D1;
    11C4 : 3A;
    11C5 : 00;
    11C6 : AD;
    11C7 : 62;
    11C8 : 00;
    11C9 : 15;
    11CA : D4;
    11CB : 22;
    11CC : 00;
    11CD : A4;
    11CE : 6F;
    11CF : 00;
    11D0 : 1B;
    11D1 : D6;
    11D2 : 09;
    11D3 : 00;
    11D4 : AE;
    11D5 : 57;
    11D6 : 00;
    11D7 : B4;
    11D8 : FF;
    11D9 : FF;
    11DA : FF;
    11DB : FF;
    11DC : FF;
    11DD : FF;
    11DE : FF;
    11DF : FF;
    11E0 : FF;
    11E1 : FF;
    11E2 : FF;
    11E3 : FF;
    11E4 : FF;
    11E5 : FF;
    11E6 : FF;
    11E7 : FF;
    11E8 : FF;
    11E9 : FF;
    11EA : FF;
    11EB : FF;
    11EC : FF;
    11ED : FF;
    11EE : FF;
    11EF : FF;
    11F0 : FF;
    11F1 : FF;
    11F2 : FF;
    11F3 : FF;
    11F4 : FF;
    11F5 : FF;
    11F6 : FF;
    11F7 : FF;
    11F8 : FF;
    11F9 : FF;
    11FA : FF;
    11FB : FF;
    11FC : FF;
    11FD : FF;
    11FE : FF;
    11FF : FF;
    1200 : FF;
    1201 : FF;
    1202 : FF;
    1203 : FF;
    1204 : FF;
    1205 : FF;
    1206 : FF;
    1207 : FF;
    1208 : FF;
    1209 : FF;
    120A : FF;
    120B : FF;
    120C : FF;
    120D : FF;
    120E : FF;
    120F : FF;
    1210 : FF;
    1211 : FF;
    1212 : FF;
    1213 : FF;
    1214 : FF;
    1215 : FF;
    1216 : FF;
    1217 : FF;
    1218 : FF;
    1219 : FF;
    121A : FF;
    121B : FF;
    121C : FF;
    121D : FF;
    121E : FF;
    121F : FF;
    1220 : FF;
    1221 : FF;
    1222 : FF;
    1223 : FF;
    1224 : FF;
    1225 : 00;
    1226 : 4B;
    1227 : FF;
    1228 : 73;
    1229 : 00;
    122A : FF;
    122B : E4;
    122C : 00;
    122D : 72;
    122E : FF;
    122F : 4C;
    1230 : 00;
    1231 : FF;
    1232 : C3;
    1233 : 00;
    1234 : 9D;
    1235 : FF;
    1236 : 27;
    1237 : 01;
    1238 : FF;
    1239 : 99;
    123A : 00;
    123B : B4;
    123C : FF;
    123D : FF;
    123E : FF;
    123F : FF;
    1240 : FF;
    1241 : FF;
    1242 : FF;
    1243 : FF;
    1244 : FF;
    1245 : FF;
    1246 : FF;
    1247 : FF;
    1248 : FF;
    1249 : FF;
    124A : FF;
    124B : FF;
    124C : FF;
    124D : FF;
    124E : FF;
    124F : FF;
    1250 : FF;
    1251 : FF;
    1252 : FF;
    1253 : FF;
    1254 : FF;
    1255 : FF;
    1256 : FF;
    1257 : FF;
    1258 : FF;
    1259 : FF;
    125A : FF;
    125B : FF;
    125C : FF;
    125D : FF;
    125E : FF;
    125F : FF;
    1260 : FF;
    1261 : FF;
    1262 : FF;
    1263 : FF;
    1264 : FF;
    1265 : FF;
    1266 : FF;
    1267 : FF;
    1268 : FF;
    1269 : FF;
    126A : FF;
    126B : FF;
    126C : FF;
    126D : FF;
    126E : FF;
    126F : FF;
    1270 : FF;
    1271 : FF;
    1272 : FF;
    1273 : FF;
    1274 : FF;
    1275 : FF;
    1276 : FF;
    1277 : FF;
    1278 : FF;
    1279 : FF;
    127A : FF;
    127B : FF;
    127C : FF;
    127D : FF;
    127E : FF;
    127F : FF;
    1280 : FF;
    1281 : FF;
    1282 : FF;
    1283 : FF;
    1284 : FF;
    1285 : FF;
    1286 : FF;
    1287 : FF;
    1288 : FF;
    1289 : 00;
    128A : 46;
    128B : FF;
    128C : 6D;
    128D : 00;
    128E : FF;
    128F : D7;
    1290 : 00;
    1291 : 9F;
    1292 : FF;
    1293 : 46;
    1294 : 00;
    1295 : FF;
    1296 : E3;
    1297 : 00;
    1298 : 91;
    1299 : FF;
    129A : 20;
    129B : 23;
    129C : FF;
    129D : 91;
    129E : 00;
    129F : B4;
    12A0 : FF;
    12A1 : FF;
    12A2 : FF;
    12A3 : FF;
    12A4 : FF;
    12A5 : FF;
    12A6 : FF;
    12A7 : FF;
    12A8 : FF;
    12A9 : FF;
    12AA : FF;
    12AB : FF;
    12AC : FF;
    12AD : FF;
    12AE : FF;
    12AF : FF;
    12B0 : FF;
    12B1 : FF;
    12B2 : FF;
    12B3 : FF;
    12B4 : FF;
    12B5 : FF;
    12B6 : FF;
    12B7 : FF;
    12B8 : FF;
    12B9 : FF;
    12BA : FF;
    12BB : FF;
    12BC : FF;
    12BD : FF;
    12BE : FF;
    12BF : FF;
    12C0 : FF;
    12C1 : FF;
    12C2 : FF;
    12C3 : FF;
    12C4 : FF;
    12C5 : FF;
    12C6 : FF;
    12C7 : FF;
    12C8 : FF;
    12C9 : FF;
    12CA : FF;
    12CB : FF;
    12CC : FF;
    12CD : FF;
    12CE : FF;
    12CF : FF;
    12D0 : FF;
    12D1 : FF;
    12D2 : FF;
    12D3 : FF;
    12D4 : FF;
    12D5 : FF;
    12D6 : FF;
    12D7 : FF;
    12D8 : FF;
    12D9 : FF;
    12DA : FF;
    12DB : FF;
    12DC : FF;
    12DD : FF;
    12DE : FF;
    12DF : FF;
    12E0 : FF;
    12E1 : FF;
    12E2 : FF;
    12E3 : FF;
    12E4 : FF;
    12E5 : FF;
    12E6 : FF;
    12E7 : FF;
    12E8 : FF;
    12E9 : FF;
    12EA : FF;
    12EB : FF;
    12EC : FF;
    12ED : 00;
    12EE : 46;
    12EF : FF;
    12F0 : 6D;
    12F1 : 00;
    12F2 : FF;
    12F3 : D7;
    12F4 : 00;
    12F5 : B6;
    12F6 : FF;
    12F7 : 46;
    12F8 : 00;
    12F9 : FF;
    12FA : B0;
    12FB : 00;
    12FC : 91;
    12FD : FF;
    12FE : 20;
    12FF : 20;
    1300 : FF;
    1301 : 91;
    1302 : 00;
    1303 : B4;
    1304 : FF;
    1305 : FF;
    1306 : FF;
    1307 : FF;
    1308 : FF;
    1309 : FF;
    130A : FF;
    130B : FF;
    130C : FF;
    130D : FF;
    130E : FF;
    130F : FF;
    1310 : FF;
    1311 : FF;
    1312 : FF;
    1313 : FF;
    1314 : FF;
    1315 : FF;
    1316 : FF;
    1317 : FF;
    1318 : FF;
    1319 : FF;
    131A : FF;
    131B : FF;
    131C : FF;
    131D : FF;
    131E : FF;
    131F : FF;
    1320 : FF;
    1321 : FF;
    1322 : FF;
    1323 : FF;
    1324 : FF;
    1325 : FF;
    1326 : FF;
    1327 : FF;
    1328 : FF;
    1329 : FF;
    132A : FF;
    132B : FF;
    132C : FF;
    132D : FF;
    132E : FF;
    132F : FF;
    1330 : FF;
    1331 : FF;
    1332 : FF;
    1333 : FF;
    1334 : FF;
    1335 : FF;
    1336 : FF;
    1337 : FF;
    1338 : FF;
    1339 : FF;
    133A : FF;
    133B : FF;
    133C : FF;
    133D : FF;
    133E : FF;
    133F : FF;
    1340 : FF;
    1341 : FF;
    1342 : FF;
    1343 : FF;
    1344 : FF;
    1345 : FF;
    1346 : FF;
    1347 : FF;
    1348 : FF;
    1349 : FF;
    134A : FF;
    134B : FF;
    134C : FF;
    134D : FF;
    134E : FF;
    134F : FF;
    1350 : FF;
    1351 : 00;
    1352 : 4A;
    1353 : FF;
    1354 : 72;
    1355 : 00;
    1356 : FF;
    1357 : DF;
    1358 : 00;
    1359 : BB;
    135A : FF;
    135B : 4A;
    135C : 00;
    135D : FF;
    135E : BB;
    135F : 00;
    1360 : 97;
    1361 : FF;
    1362 : 22;
    1363 : 22;
    1364 : FF;
    1365 : 95;
    1366 : 00;
    1367 : B4;
    1368 : FF;
    1369 : FF;
    136A : FF;
    136B : FF;
    136C : FF;
    136D : FF;
    136E : FF;
    136F : FF;
    1370 : FF;
    1371 : FF;
    1372 : FF;
    1373 : FF;
    1374 : FF;
    1375 : FF;
    1376 : FF;
    1377 : FF;
    1378 : FF;
    1379 : FF;
    137A : FF;
    137B : FF;
    137C : FF;
    137D : FF;
    137E : FF;
    137F : FF;
    1380 : FF;
    1381 : FF;
    1382 : FF;
    1383 : FF;
    1384 : FF;
    1385 : FF;
    1386 : FF;
    1387 : FF;
    1388 : FF;
    1389 : FF;
    138A : FF;
    138B : FF;
    138C : FF;
    138D : FF;
    138E : FF;
    138F : FF;
    1390 : FF;
    1391 : FF;
    1392 : FF;
    1393 : FF;
    1394 : FF;
    1395 : FF;
    1396 : FF;
    1397 : FF;
    1398 : FF;
    1399 : FF;
    139A : FF;
    139B : FF;
    139C : FF;
    139D : FF;
    139E : FF;
    139F : FF;
    13A0 : FF;
    13A1 : FF;
    13A2 : FF;
    13A3 : FF;
    13A4 : FF;
    13A5 : FF;
    13A6 : FF;
    13A7 : FF;
    13A8 : FF;
    13A9 : FF;
    13AA : FF;
    13AB : FF;
    13AC : FF;
    13AD : FF;
    13AE : FF;
    13AF : FF;
    13B0 : FF;
    13B1 : FF;
    13B2 : FF;
    13B3 : FF;
    13B4 : FF;
    13B5 : 00;
    13B6 : 31;
    13B7 : CE;
    13B8 : 4D;
    13B9 : 00;
    13BA : CE;
    13BB : 97;
    13BC : 00;
    13BD : 7F;
    13BE : C9;
    13BF : 32;
    13C0 : 00;
    13C1 : CE;
    13C2 : 7F;
    13C3 : 00;
    13C4 : 66;
    13C5 : CE;
    13C6 : 17;
    13C7 : 17;
    13C8 : CC;
    13C9 : 79;
    13CA : 00;
    13CB : B4;
    13CC : FF;
    13CD : FF;
    13CE : FF;
    13CF : FF;
    13D0 : FF;
    13D1 : FF;
    13D2 : FF;
    13D3 : FF;
    13D4 : FF;
    13D5 : FF;
    13D6 : FF;
    13D7 : FF;
    13D8 : FF;
    13D9 : FF;
    13DA : FF;
    13DB : FF;
    13DC : FF;
    13DD : FF;
    13DE : FF;
    13DF : FF;
    13E0 : FF;
    13E1 : FF;
    13E2 : FF;
    13E3 : FF;
    13E4 : FF;
    13E5 : FF;
    13E6 : FF;
    13E7 : FF;
    13E8 : FF;
    13E9 : FF;
    13EA : FF;
    13EB : FF;
    13EC : FF;
    13ED : FF;
    13EE : FF;
    13EF : FF;
    13F0 : FF;
    13F1 : FF;
    13F2 : FF;
    13F3 : FF;
    13F4 : FF;
    13F5 : FF;
    13F6 : FF;
    13F7 : FF;
    13F8 : FF;
    13F9 : FF;
    13FA : FF;
    13FB : FF;
    13FC : FF;
    13FD : FF;
    13FE : FF;
    13FF : FF;
    1400 : FF;
    1401 : FF;
    1402 : FF;
    1403 : FF;
    1404 : FF;
    1405 : FF;
    1406 : FF;
    1407 : FF;
    1408 : FF;
    1409 : FF;
    140A : FF;
    140B : FF;
    140C : FF;
    140D : FF;
    140E : FF;
    140F : FF;
    1410 : FF;
    1411 : FF;
    1412 : FF;
    1413 : FF;
    1414 : FF;
    1415 : FF;
    1416 : FF;
    1417 : FF;
    1418 : FF;
    1419 : 03;
    141A : 00;
    141B : 00;
    141C : 00;
    141D : 00;
    141E : 00;
    141F : 00;
    1420 : 00;
    1421 : 00;
    1422 : 00;
    1423 : 00;
    1424 : 00;
    1425 : 00;
    1426 : 00;
    1427 : 00;
    1428 : 00;
    1429 : 00;
    142A : 00;
    142B : 00;
    142C : 00;
    142D : 00;
    142E : 00;
    142F : B4;
    1430 : FF;
    1431 : FF;
    1432 : FF;
    1433 : FF;
    1434 : FF;
    1435 : FF;
    1436 : FF;
    1437 : FF;
    1438 : FF;
    1439 : FF;
    143A : FF;
    143B : FF;
    143C : FF;
    143D : FF;
    143E : FF;
    143F : FF;
    1440 : FF;
    1441 : FF;
    1442 : FF;
    1443 : FF;
    1444 : FF;
    1445 : FF;
    1446 : FF;
    1447 : FF;
    1448 : FF;
    1449 : FF;
    144A : FF;
    144B : FF;
    144C : FF;
    144D : FF;
    144E : FF;
    144F : FF;
    1450 : FF;
    1451 : FF;
    1452 : FF;
    1453 : FF;
    1454 : FF;
    1455 : FF;
    1456 : FF;
    1457 : FF;
    1458 : FF;
    1459 : FF;
    145A : FF;
    145B : FF;
    145C : FF;
    145D : FF;
    145E : FF;
    145F : FF;
    1460 : FF;
    1461 : FF;
    1462 : FF;
    1463 : FF;
    1464 : FF;
    1465 : FF;
    1466 : FF;
    1467 : FF;
    1468 : FF;
    1469 : FF;
    146A : FF;
    146B : FF;
    146C : FF;
    146D : FF;
    146E : FF;
    146F : FF;
    1470 : FF;
    1471 : FF;
    1472 : FF;
    1473 : FF;
    1474 : FF;
    1475 : FF;
    1476 : FF;
    1477 : FF;
    1478 : FF;
    1479 : FF;
    147A : FF;
    147B : FF;
    147C : FF;
    147D : 00;
    147E : 3C;
    147F : FF;
    1480 : A6;
    1481 : 37;
    1482 : 7F;
    1483 : A3;
    1484 : 9C;
    1485 : DE;
    1486 : E7;
    1487 : DD;
    1488 : D4;
    1489 : F4;
    148A : B7;
    148B : DB;
    148C : F2;
    148D : A6;
    148E : 38;
    148F : 74;
    1490 : AF;
    1491 : C2;
    1492 : 00;
    1493 : B4;
    1494 : FF;
    1495 : FF;
    1496 : FF;
    1497 : FF;
    1498 : FF;
    1499 : FF;
    149A : FF;
    149B : FF;
    149C : FF;
    149D : FF;
    149E : FF;
    149F : FF;
    14A0 : FF;
    14A1 : FF;
    14A2 : FF;
    14A3 : FF;
    14A4 : FF;
    14A5 : FF;
    14A6 : FF;
    14A7 : FF;
    14A8 : FF;
    14A9 : FF;
    14AA : FF;
    14AB : FF;
    14AC : FF;
    14AD : FF;
    14AE : FF;
    14AF : FF;
    14B0 : FF;
    14B1 : FF;
    14B2 : FF;
    14B3 : FF;
    14B4 : FF;
    14B5 : FF;
    14B6 : FF;
    14B7 : FF;
    14B8 : FF;
    14B9 : FF;
    14BA : FF;
    14BB : FF;
    14BC : FF;
    14BD : FF;
    14BE : FF;
    14BF : FF;
    14C0 : FF;
    14C1 : FF;
    14C2 : FF;
    14C3 : FF;
    14C4 : FF;
    14C5 : FF;
    14C6 : FF;
    14C7 : FF;
    14C8 : FF;
    14C9 : FF;
    14CA : FF;
    14CB : FF;
    14CC : FF;
    14CD : FF;
    14CE : FF;
    14CF : FF;
    14D0 : FF;
    14D1 : FF;
    14D2 : FF;
    14D3 : FF;
    14D4 : FF;
    14D5 : FF;
    14D6 : FF;
    14D7 : FF;
    14D8 : FF;
    14D9 : FF;
    14DA : FF;
    14DB : FF;
    14DC : FF;
    14DD : FF;
    14DE : FF;
    14DF : FF;
    14E0 : FF;
    14E1 : 00;
    14E2 : 62;
    14E3 : 9D;
    14E4 : 00;
    14E5 : 00;
    14E6 : 00;
    14E7 : 00;
    14E8 : E8;
    14E9 : FF;
    14EA : AD;
    14EB : 00;
    14EC : 00;
    14ED : 41;
    14EE : FC;
    14EF : FF;
    14F0 : 37;
    14F1 : 00;
    14F2 : 00;
    14F3 : 00;
    14F4 : 1F;
    14F5 : C4;
    14F6 : 00;
    14F7 : B4;
    14F8 : FF;
    14F9 : FF;
    14FA : FF;
    14FB : FF;
    14FC : FF;
    14FD : FF;
    14FE : FF;
    14FF : FF;
    1500 : FF;
    1501 : FF;
    1502 : FF;
    1503 : FF;
    1504 : FF;
    1505 : FF;
    1506 : FF;
    1507 : FF;
    1508 : FF;
    1509 : FF;
    150A : FF;
    150B : FF;
    150C : FF;
    150D : FF;
    150E : FF;
    150F : FF;
    1510 : FF;
    1511 : FF;
    1512 : FF;
    1513 : FF;
    1514 : FF;
    1515 : FF;
    1516 : FF;
    1517 : FF;
    1518 : FF;
    1519 : FF;
    151A : FF;
    151B : FF;
    151C : FF;
    151D : FF;
    151E : FF;
    151F : FF;
    1520 : FF;
    1521 : FF;
    1522 : FF;
    1523 : FF;
    1524 : FF;
    1525 : FF;
    1526 : FF;
    1527 : FF;
    1528 : FF;
    1529 : FF;
    152A : FF;
    152B : FF;
    152C : FF;
    152D : FF;
    152E : FF;
    152F : FF;
    1530 : FF;
    1531 : FF;
    1532 : FF;
    1533 : FF;
    1534 : FF;
    1535 : FF;
    1536 : FF;
    1537 : FF;
    1538 : FF;
    1539 : FF;
    153A : FF;
    153B : FF;
    153C : FF;
    153D : FF;
    153E : FF;
    153F : FF;
    1540 : FF;
    1541 : FF;
    1542 : FF;
    1543 : FF;
    1544 : FF;
    1545 : 01;
    1546 : 04;
    1547 : 00;
    1548 : 80;
    1549 : FF;
    154A : EB;
    154B : 4B;
    154C : 00;
    154D : D3;
    154E : 00;
    154F : 35;
    1550 : 3A;
    1551 : 00;
    1552 : 4B;
    1553 : 82;
    1554 : 00;
    1555 : CA;
    1556 : FF;
    1557 : CD;
    1558 : 00;
    1559 : 00;
    155A : 00;
    155B : B4;
    155C : FF;
    155D : FF;
    155E : FF;
    155F : FF;
    1560 : FF;
    1561 : FF;
    1562 : FF;
    1563 : FF;
    1564 : FF;
    1565 : FF;
    1566 : FF;
    1567 : FF;
    1568 : FF;
    1569 : FF;
    156A : FF;
    156B : FF;
    156C : FF;
    156D : FF;
    156E : FF;
    156F : FF;
    1570 : FF;
    1571 : FF;
    1572 : FF;
    1573 : FF;
    1574 : FF;
    1575 : FF;
    1576 : FF;
    1577 : FF;
    1578 : FF;
    1579 : FF;
    157A : FF;
    157B : FF;
    157C : FF;
    157D : FF;
    157E : FF;
    157F : FF;
    1580 : FF;
    1581 : FF;
    1582 : FF;
    1583 : FF;
    1584 : FF;
    1585 : FF;
    1586 : FF;
    1587 : FF;
    1588 : FF;
    1589 : FF;
    158A : FF;
    158B : FF;
    158C : FF;
    158D : FF;
    158E : FF;
    158F : FF;
    1590 : FF;
    1591 : FF;
    1592 : FF;
    1593 : FF;
    1594 : FF;
    1595 : FF;
    1596 : FF;
    1597 : FF;
    1598 : FF;
    1599 : FF;
    159A : FF;
    159B : FF;
    159C : FF;
    159D : FF;
    159E : FF;
    159F : FF;
    15A0 : FF;
    15A1 : FF;
    15A2 : FF;
    15A3 : FF;
    15A4 : FF;
    15A5 : FF;
    15A6 : FF;
    15A7 : FF;
    15A8 : FF;
    15A9 : 03;
    15AA : 00;
    15AB : C1;
    15AC : FF;
    15AD : 01;
    15AE : CF;
    15AF : FF;
    15B0 : 17;
    15B1 : 00;
    15B2 : 2D;
    15B3 : FF;
    15B4 : FF;
    15B5 : 62;
    15B6 : 00;
    15B7 : 00;
    15B8 : D9;
    15B9 : FD;
    15BA : 00;
    15BB : CA;
    15BC : FD;
    15BD : 00;
    15BE : 00;
    15BF : B4;
    15C0 : FF;
    15C1 : FF;
    15C2 : FF;
    15C3 : FF;
    15C4 : FF;
    15C5 : FF;
    15C6 : FF;
    15C7 : FF;
    15C8 : FF;
    15C9 : FF;
    15CA : FF;
    15CB : FF;
    15CC : FF;
    15CD : FF;
    15CE : FF;
    15CF : FF;
    15D0 : FF;
    15D1 : FF;
    15D2 : FF;
    15D3 : FF;
    15D4 : FF;
    15D5 : FF;
    15D6 : FF;
    15D7 : FF;
    15D8 : FF;
    15D9 : FF;
    15DA : FF;
    15DB : FF;
    15DC : FF;
    15DD : FF;
    15DE : FF;
    15DF : FF;
    15E0 : FF;
    15E1 : FF;
    15E2 : FF;
    15E3 : FF;
    15E4 : FF;
    15E5 : FF;
    15E6 : FF;
    15E7 : FF;
    15E8 : FF;
    15E9 : FF;
    15EA : FF;
    15EB : FF;
    15EC : FF;
    15ED : FF;
    15EE : FF;
    15EF : FF;
    15F0 : FF;
    15F1 : FF;
    15F2 : FF;
[...]
    2239 : FF;
    223A : FF;
    223B : FF;
    223C : FF;
    223D : FF;
    223E : FF;
    223F : FF;
    2240 : FF;
    2241 : FF;
    2242 : FF;
    2243 : FF;
    2244 : FF;
    2245 : FF;
    2246 : FF;
    2247 : FF;
    2248 : FF;
    2249 : FF;
    224A : FF;
    224B : FF;
    224C : FF;
    224D : FF;
    224E : FF;
    224F : FF;
    2250 : FF;
    2251 : FF;
    2252 : FF;
    2253 : FF;
    2254 : FF;
    2255 : FF;
    2256 : FF;
    2257 : FF;
    2258 : FF;
    2259 : FF;
    225A : FF;
    225B : FF;
    225C : FF;
    225D : FF;
    225E : FF;
    225F : FF;
    2260 : FF;
    2261 : FF;
    2262 : FF;
    2263 : FF;
    2264 : FF;
    2265 : FF;
    2266 : FF;
    2267 : FF;
    2268 : FF;
    2269 : FF;
    226A : FF;
    226B : FF;
    226C : FF;
    226D : FF;
    226E : FF;
    226F : FF;
    2270 : FF;
    2271 : FF;
    2272 : FF;
    2273 : FF;
    2274 : FF;
    2275 : FF;
    2276 : FF;
    2277 : FF;
    2278 : FF;
    2279 : FF;
    227A : FF;
    227B : FF;
    227C : FF;
    227D : FF;
    227E : FF;
    227F : FF;
    2280 : FF;
    2281 : FF;
    2282 : FF;
    2283 : FF;
    2284 : FF;
    2285 : FF;
    2286 : FF;
    2287 : FF;
    2288 : FF;
    2289 : FF;
    228A : FF;
    228B : FF;
    228C : FF;
    228D : FF;
    228E : FF;
    228F : FF;
    2290 : FF;
    2291 : FF;
    2292 : FF;
    2293 : FF;
    2294 : FF;
    2295 : FF;
    2296 : FF;
    2297 : FF;
    2298 : FF;
    2299 : FF;
    229A : FF;
    229B : FF;
    229C : FF;
    229D : FF;
    229E : FF;
    229F : FF;
    22A0 : FF;
    22A1 : FF;
    22A2 : FF;
    22A3 : FF;
    22A4 : FF;
    22A5 : FF;
    22A6 : FF;
    22A7 : FF;
    22A8 : FF;
    22A9 : FF;
    22AA : FF;
    22AB : FF;
    22AC : FF;
    22AD : FF;
    22AE : FF;
    22AF : FF;
    22B0 : FF;
    22B1 : FF;
    22B2 : FF;
    22B3 : FF;
    22B4 : FF;
    22B5 : FF;
    22B6 : FF;
    22B7 : FF;
    22B8 : FF;
    22B9 : FF;
    22BA : FF;
    22BB : FF;
    22BC : FF;
    22BD : FF;
    22BE : FF;
    22BF : FF;
    22C0 : FF;
    22C1 : FF;
    22C2 : FF;
    22C3 : FF;
    22C4 : FF;
    22C5 : FF;
    22C6 : FF;
    22C7 : FF;
    22C8 : FF;
    22C9 : FF;
    22CA : FF;
    22CB : FF;
    22CC : FF;
    22CD : FF;
    22CE : FF;
    22CF : FF;
    22D0 : FF;
    22D1 : FF;
    22D2 : FF;
    22D3 : FF;
    22D4 : FF;
    22D5 : FF;
    22D6 : FF;
    22D7 : FF;
    22D8 : FF;
    22D9 : FF;
    22DA : FF;
    22DB : FF;
    22DC : FF;
    22DD : FF;
    22DE : FF;
    22DF : FF;
    22E0 : FF;
    22E1 : FF;
    22E2 : FF;
    22E3 : FF;
    22E4 : FF;
    22E5 : FF;
    22E6 : FF;
    22E7 : FF;
    22E8 : FF;
    22E9 : FF;
    22EA : FF;
    22EB : FF;
    22EC : FF;
    22ED : FF;
    22EE : FF;
    22EF : FF;
    22F0 : FF;
    22F1 : FF;
    22F2 : FF;
    22F3 : FF;
    22F4 : FF;
    22F5 : FF;
    22F6 : FF;
    22F7 : FF;
    22F8 : FF;
    22F9 : FF;
    22FA : FF;
    22FB : FF;
    22FC : FF;
    22FD : FF;
    22FE : FF;
    22FF : FF;
    2300 : FF;
    2301 : FF;
    2302 : FF;
    2303 : FF;
    2304 : FF;
    2305 : FF;
    2306 : FF;
    2307 : FF;
    2308 : FF;
    2309 : FF;
    230A : FF;
    230B : FF;
    230C : FF;
    230D : FF;
    230E : FF;
    230F : FF;
    2310 : FF;
    2311 : FF;
    2312 : FF;
    2313 : FF;
    2314 : FF;
    2315 : FF;
    2316 : FF;
    2317 : FF;
    2318 : FF;
    2319 : FF;
    231A : FF;
    231B : FF;
    231C : FF;
    231D : FF;
    231E : FF;
    231F : FF;
    2320 : FF;
    2321 : FF;
    2322 : FF;
    2323 : FF;
    2324 : FF;
    2325 : FF;
    2326 : FF;
    2327 : FF;
    2328 : FF;
    2329 : FF;
    232A : FF;
    232B : FF;
    232C : FF;
    232D : FF;
    232E : FF;
    232F : FF;
    2330 : FF;
    2331 : FF;
    2332 : FF;
    2333 : FF;
    2334 : FF;
    2335 : FF;
    2336 : FF;
    2337 : FF;
    2338 : FF;
    2339 : FF;
    233A : FF;
    233B : FF;
    233C : FF;
    233D : FF;
    233E : FF;
    233F : FF;
    2340 : FF;
    2341 : FF;
    2342 : FF;
    2343 : FF;
    2344 : FF;
    2345 : FF;
    2346 : FF;
    2347 : FF;
    2348 : FF;
    2349 : FF;
    234A : FF;
    234B : FF;
    234C : FF;
    234D : FF;
    234E : FF;
    234F : FF;
    2350 : FF;
    2351 : FF;
    2352 : FF;
    2353 : FF;
    2354 : FF;
    2355 : FF;
    2356 : FF;
    2357 : FF;
    2358 : FF;
    2359 : FF;
    235A : FF;
    235B : FF;
    235C : FF;
    235D : FF;
    235E : FF;
    235F : FF;
    2360 : FF;
    2361 : FF;
    2362 : FF;
    2363 : FF;
    2364 : FF;
    2365 : FF;
    2366 : FF;
    2367 : FF;
    2368 : FF;
    2369 : FF;
    236A : FF;
    236B : FF;
    236C : FF;
    236D : FF;
    236E : FF;
    236F : FF;
    2370 : FF;
    2371 : FF;
    2372 : FF;
    2373 : FF;
    2374 : FF;
    2375 : FF;
    2376 : FF;
    2377 : FF;
    2378 : FF;
    2379 : FF;
    237A : FF;
    237B : FF;
    237C : FF;
    237D : FF;
    237E : FF;
    237F : FF;
    2380 : FF;
    2381 : FF;
    2382 : FF;
    2383 : FF;
    2384 : FF;
    2385 : FF;
    2386 : FF;
    2387 : FF;
    2388 : FF;
    2389 : FF;
    238A : FF;
    238B : FF;
    238C : FF;
    238D : FF;
    238E : FF;
    238F : FF;
    2390 : FF;
    2391 : FF;
    2392 : FF;
    2393 : FF;
    2394 : FF;
    2395 : FF;
    2396 : FF;
    2397 : FF;
    2398 : FF;
    2399 : FF;
    239A : FF;
    239B : FF;
    239C : FF;
    239D : FF;
    239E : FF;
    239F : FF;
    23A0 : FF;
    23A1 : FF;
    23A2 : FF;
    23A3 : FF;
    23A4 : FF;
    23A5 : FF;
    23A6 : FF;
    23A7 : FF;
    23A8 : FF;
    23A9 : FF;
    23AA : FF;
    23AB : FF;
    23AC : FF;
    23AD : FF;
    23AE : FF;
    23AF : FF;
    23B0 : FF;
    23B1 : FF;
    23B2 : FF;
    23B3 : FF;
    23B4 : FF;
    23B5 : FF;
    23B6 : FF;
    23B7 : FF;
    23B8 : FF;
    23B9 : FF;
    23BA : FF;
    23BB : FF;
    23BC : FF;
    23BD : FF;
    23BE : FF;
    23BF : FF;
    23C0 : FF;
    23C1 : FF;
    23C2 : FF;
    23C3 : FF;
    23C4 : FF;
    23C5 : FF;
    23C6 : FF;
    23C7 : FF;
    23C8 : FF;
    23C9 : FF;
    23CA : FF;
    23CB : FF;
    23CC : FF;
    23CD : FF;
    23CE : FF;
    23CF : FF;
    23D0 : FF;
    23D1 : FF;
    23D2 : FF;
    23D3 : FF;
    23D4 : FF;
    23D5 : FF;
    23D6 : FF;
    23D7 : FF;
    23D8 : FF;
    23D9 : FF;
    23DA : FF;
    23DB : FF;
    23DC : FF;
    23DD : FF;
    23DE : FF;
    23DF : FF;
    23E0 : FF;
    23E1 : FF;
    23E2 : FF;
    23E3 : FF;
    23E4 : FF;
    23E5 : FF;
    23E6 : FF;
    23E7 : FF;
    23E8 : FF;
    23E9 : FF;
    23EA : FF;
    23EB : FF;
    23EC : FF;
    23ED : FF;
    23EE : FF;
    23EF : FF;
    23F0 : FF;
    23F1 : FF;
    23F2 : FF;
    23F3 : FF;
    23F4 : FF;
    23F5 : FF;
    23F6 : FF;
    23F7 : FF;
    23F8 : FF;
    23F9 : FF;
    23FA : FF;
    23FB : FF;
    23FC : FF;
    23FD : FF;
    23FE : FF;
    23FF : FF;
    2400 : FF;
    2401 : FF;
    2402 : FF;
    2403 : FF;
    2404 : FF;
    2405 : FF;
    2406 : FF;
    2407 : FF;
    2408 : FF;
    2409 : FF;
    240A : FF;
    240B : FF;
    240C : FF;
    240D : FF;
    240E : FF;
    240F : FF;
    2410 : FF;
    2411 : FF;
    2412 : FF;
    2413 : FF;
    2414 : FF;
    2415 : FF;
    2416 : FF;
    2417 : FF;
    2418 : FF;
    2419 : FF;
    241A : FF;
    241B : FF;
    241C : FF;
    241D : FF;
    241E : FF;
    241F : FF;
    2420 : FF;
    2421 : FF;
    2422 : FF;
    2423 : FF;
    2424 : FF;
    2425 : FF;
    2426 : FF;
    2427 : FF;
    2428 : FF;
    2429 : FF;
    242A : FF;
    242B : FF;
    242C : FF;
    242D : FF;
    242E : FF;
    242F : FF;
    2430 : FF;
    2431 : FF;
    2432 : FF;
    2433 : FF;
    2434 : FF;
    2435 : FF;
    2436 : FF;
    2437 : FF;
    2438 : FF;
    2439 : FF;
    243A : FF;
    243B : FF;
    243C : FF;
    243D : FF;
    243E : FF;
    243F : FF;
    2440 : FF;
    2441 : FF;
    2442 : FF;
    2443 : FF;
    2444 : FF;
    2445 : FF;
    2446 : FF;
    2447 : FF;
    2448 : FF;
    2449 : FF;
    244A : FF;
    244B : FF;
    244C : FF;
    244D : FF;
    244E : FF;
    244F : FF;
    2450 : FF;
    2451 : FF;
    2452 : FF;
    2453 : FF;
    2454 : FF;
    2455 : FF;
    2456 : FF;
    2457 : FF;
    2458 : FF;
    2459 : FF;
    245A : FF;
    245B : FF;
    245C : FF;
    245D : FF;
    245E : FF;
    245F : FF;
    2460 : FF;
    2461 : FF;
    2462 : FF;
    2463 : FF;
    2464 : FF;
    2465 : FF;
    2466 : FF;
    2467 : FF;
    2468 : FF;
    2469 : FF;
    246A : FF;
    246B : FF;
    246C : FF;
    246D : FF;
    246E : FF;
    246F : FF;
    2470 : FF;
    2471 : FF;
    2472 : FF;
    2473 : FF;
    2474 : FF;
    2475 : FF;
    2476 : FF;
    2477 : FF;
    2478 : FF;
    2479 : FF;
    247A : FF;
    247B : FF;
    247C : FF;
    247D : FF;
    247E : FF;
    247F : FF;
    2480 : FF;
    2481 : FF;
    2482 : FF;
    2483 : FF;
    2484 : FF;
    2485 : FF;
    2486 : FF;
    2487 : FF;
    2488 : FF;
    2489 : FF;
    248A : FF;
    248B : FF;
    248C : FF;
    248D : FF;
    248E : FF;
    248F : FF;
    2490 : FF;
    2491 : FF;
    2492 : FF;
    2493 : FF;
    2494 : FF;
    2495 : FF;
    2496 : FF;
    2497 : FF;
    2498 : FF;
    2499 : FF;
    249A : FF;
    249B : FF;
    249C : FF;
    249D : FF;
    249E : FF;
    249F : FF;
    24A0 : FF;
    24A1 : FF;
    24A2 : FF;
    24A3 : FF;
    24A4 : FF;
    24A5 : FF;
    24A6 : FF;
    24A7 : FF;
    24A8 : FF;
    24A9 : FF;
    24AA : FF;
    24AB : FF;
    24AC : FF;
    24AD : FF;
    24AE : FF;
    24AF : FF;
    24B0 : FF;
    24B1 : FF;
    24B2 : FF;
    24B3 : FF;
    24B4 : FF;
    24B5 : FF;
    24B6 : FF;
    24B7 : FF;
    24B8 : FF;
    24B9 : FF;
    24BA : FF;
    24BB : FF;
    24BC : FF;
    24BD : FF;
    24BE : FF;
    24BF : FF;
    24C0 : FF;
    24C1 : FF;
    24C2 : FF;
    24C3 : FF;
    24C4 : FF;
    24C5 : FF;
    24C6 : FF;
    24C7 : FF;
    24C8 : FF;
    24C9 : FF;
    24CA : FF;
    24CB : FF;
    24CC : FF;
    24CD : FF;
    24CE : FF;
    24CF : FF;
    24D0 : FF;
    24D1 : FF;
    24D2 : FF;
    24D3 : FF;
    24D4 : FF;
    24D5 : FF;
    24D6 : FF;
    24D7 : FF;
    24D8 : FF;
    24D9 : FF;
    24DA : FF;
    24DB : FF;
    24DC : FF;
    24DD : FF;
    24DE : FF;
    24DF : FF;
    24E0 : FF;
    24E1 : FF;
    24E2 : FF;
    24E3 : FF;
    24E4 : FF;
    24E5 : FF;
    24E6 : FF;
    24E7 : FF;
    24E8 : FF;
    24E9 : FF;
    24EA : FF;
    24EB : FF;
    24EC : FF;
    24ED : FF;
    24EE : FF;
    24EF : FF;
    24F0 : FF;
    24F1 : FF;
    24F2 : FF;
    24F3 : FF;
    24F4 : FF;
    24F5 : FF;
    24F6 : FF;
    24F7 : FF;
    24F8 : FF;
    24F9 : FF;
    24FA : FF;
    24FB : FF;
    24FC : FF;
    24FD : FF;
    24FE : FF;
    24FF : FF;
    2500 : FF;
    2501 : FF;
    2502 : FF;
    2503 : FF;
    2504 : FF;
    2505 : FF;
    2506 : FF;
    2507 : FF;
    2508 : FF;
    2509 : FF;
    250A : FF;
    250B : FF;
    250C : FF;
    250D : FF;
    250E : FF;
    250F : FF;
    2510 : FF;
    2511 : FF;
    2512 : FF;
    2513 : FF;
    2514 : FF;
    2515 : FF;
    2516 : FF;
    2517 : FF;
    2518 : FF;
    2519 : FF;
    251A : FF;
    251B : FF;
    251C : FF;
    251D : FF;
    251E : FF;
    251F : FF;
    2520 : FF;
    2521 : FF;
    2522 : FF;
    2523 : FF;
    2524 : FF;
    2525 : FF;
    2526 : FF;
    2527 : FF;
    2528 : FF;
    2529 : FF;
    252A : FF;
    252B : FF;
    252C : FF;
    252D : FF;
    252E : FF;
    252F : FF;
    2530 : FF;
    2531 : FF;
    2532 : FF;
    2533 : FF;
    2534 : FF;
    2535 : FF;
    2536 : FF;
    2537 : FF;
    2538 : FF;
    2539 : FF;
    253A : FF;
    253B : FF;
    253C : FF;
    253D : FF;
    253E : FF;
    253F : FF;
    2540 : FF;
    2541 : FF;
    2542 : FF;
    2543 : FF;
    2544 : FF;
    2545 : FF;
    2546 : FF;
    2547 : FF;
    2548 : FF;
    2549 : FF;
    254A : FF;
    254B : FF;
    254C : FF;
    254D : FF;
    254E : FF;
    254F : FF;
    2550 : FF;
    2551 : FF;
    2552 : FF;
    2553 : FF;
    2554 : FF;
    2555 : FF;
    2556 : FF;
    2557 : FF;
    2558 : FF;
    2559 : FF;
    255A : FF;
    255B : FF;
    255C : FF;
    255D : FF;
    255E : FF;
    255F : FF;
    2560 : FF;
    2561 : FF;
    2562 : FF;
    2563 : FF;
    2564 : FF;
    2565 : FF;
    2566 : FF;
    2567 : FF;
    2568 : FF;
    2569 : FF;
    256A : FF;
    256B : FF;
    256C : FF;
    256D : FF;
    256E : FF;
    256F : FF;
    2570 : FF;
    2571 : FF;
    2572 : FF;
    2573 : FF;
    2574 : FF;
    2575 : FF;
    2576 : FF;
    2577 : FF;
    2578 : FF;
    2579 : FF;
    257A : FF;
    257B : FF;
    257C : FF;
    257D : FF;
    257E : FF;
    257F : FF;
    2580 : FF;
    2581 : FF;
    2582 : FF;
    2583 : FF;
    2584 : FF;
    2585 : FF;
    2586 : FF;
    2587 : FF;
    2588 : FF;
    2589 : FF;
    258A : FF;
    258B : FF;
    258C : FF;
    258D : FF;
    258E : FF;
    258F : FF;
    2590 : FF;
    2591 : FF;
    2592 : FF;
    2593 : FF;
    2594 : FF;
    2595 : FF;
    2596 : FF;
    2597 : FF;
    2598 : FF;
    2599 : FF;
    259A : FF;
    259B : FF;
    259C : FF;
    259D : FF;
    259E : FF;
    259F : FF;
    25A0 : FF;
    25A1 : FF;
    25A2 : FF;
    25A3 : FF;
    25A4 : FF;
    25A5 : FF;
    25A6 : FF;
    25A7 : FF;
    25A8 : FF;
    25A9 : FF;
    25AA : FF;
    25AB : FF;
    25AC : FF;
    25AD : FF;
    25AE : FF;
    25AF : FF;
    25B0 : FF;
    25B1 : FF;
    25B2 : FF;
    25B3 : FF;
    25B4 : FF;
    25B5 : FF;
    25B6 : FF;
    25B7 : FF;
    25B8 : FF;
    25B9 : FF;
    25BA : FF;
    25BB : FF;
    25BC : FF;
    25BD : FF;
    25BE : FF;
    25BF : FF;
    25C0 : FF;
    25C1 : FF;
    25C2 : FF;
    25C3 : FF;
    25C4 : FF;
    25C5 : FF;
    25C6 : FF;
    25C7 : FF;
    25C8 : FF;
    25C9 : FF;
    25CA : FF;
    25CB : FF;
    25CC : FF;
    25CD : FF;
    25CE : FF;
    25CF : FF;
    25D0 : FF;
    25D1 : FF;
    25D2 : FF;
    25D3 : FF;
    25D4 : FF;
    25D5 : FF;
    25D6 : FF;
    25D7 : FF;
    25D8 : FF;
    25D9 : FF;
    25DA : FF;
    25DB : FF;
    25DC : FF;
    25DD : FF;
    25DE : FF;
    25DF : FF;
    25E0 : FF;
    25E1 : FF;
    25E2 : FF;
    25E3 : FF;
    25E4 : FF;
    25E5 : FF;
    25E6 : FF;
    25E7 : FF;
    25E8 : FF;
    25E9 : FF;
    25EA : FF;
    25EB : FF;
    25EC : FF;
    25ED : FF;
    25EE : FF;
    25EF : FF;
    25F0 : FF;
    25F1 : FF;
    25F2 : FF;
    25F3 : FF;
    25F4 : FF;
    25F5 : FF;
    25F6 : FF;
    25F7 : FF;
    25F8 : FF;
    25F9 : FF;
    25FA : FF;
    25FB : FF;
    25FC : FF;
    25FD : FF;
    25FE : FF;
    25FF : FF;
    2600 : FF;
    2601 : FF;
    2602 : FF;
    2603 : FF;
    2604 : FF;
    2605 : FF;
    2606 : FF;
    2607 : FF;
    2608 : FF;
    2609 : FF;
    260A : FF;
    260B : FF;
    260C : FF;
    260D : FF;
    260E : FF;
    260F : FF;
    2610 : FF;
    2611 : FF;
    2612 : FF;
    2613 : FF;
    2614 : FF;
    2615 : FF;
    2616 : FF;
    2617 : FF;
    2618 : FF;
    2619 : FF;
    261A : FF;
    261B : FF;
    261C : FF;
    261D : FF;
    261E : FF;
    261F : FF;
    2620 : FF;
    2621 : FF;
    2622 : FF;
    2623 : FF;
    2624 : FF;
    2625 : FF;
    2626 : FF;
    2627 : FF;
    2628 : FF;
    2629 : FF;
    262A : FF;
    262B : FF;
    262C : FF;
    262D : FF;
    262E : FF;
    262F : FF;
    2630 : FF;
    2631 : FF;
    2632 : FF;
    2633 : FF;
    2634 : FF;
    2635 : FF;
    2636 : FF;
    2637 : FF;
    2638 : FF;
    2639 : FF;
    263A : FF;
    263B : FF;
    263C : FF;
    263D : FF;
    263E : FF;
    263F : FF;
    2640 : FF;
    2641 : FF;
    2642 : FF;
    2643 : FF;
    2644 : FF;
    2645 : FF;
    2646 : FF;
    2647 : FF;
    2648 : FF;
    2649 : FF;
    264A : FF;
    264B : FF;
    264C : FF;
    264D : FF;
    264E : FF;
    264F : FF;
    2650 : FF;
    2651 : FF;
    2652 : FF;
    2653 : FF;
    2654 : FF;
    2655 : FF;
    2656 : FF;
    2657 : FF;
    2658 : FF;
    2659 : FF;
    265A : FF;
    265B : FF;
    265C : FF;
    265D : FF;
    265E : FF;
    265F : FF;
    2660 : FF;
    2661 : FF;
    2662 : FF;
    2663 : FF;
    2664 : FF;
    2665 : FF;
    2666 : FF;
    2667 : FF;
    2668 : FF;
    2669 : FF;
    266A : FF;
    266B : FF;
    266C : FF;
    266D : FF;
    266E : FF;
    266F : FF;
    2670 : FF;
    2671 : FF;
    2672 : FF;
    2673 : FF;
    2674 : FF;
    2675 : FF;
    2676 : FF;
    2677 : FF;
    2678 : FF;
    2679 : FF;
    267A : FF;
    267B : FF;
    267C : FF;
    267D : FF;
    267E : FF;
    267F : FF;
    2680 : FF;
    2681 : FF;
    2682 : FF;
    2683 : FF;
    2684 : FF;
    2685 : FF;
    2686 : FF;
    2687 : FF;
    2688 : FF;
    2689 : FF;
    268A : FF;
    268B : FF;
    268C : FF;
    268D : FF;
    268E : FF;
    268F : FF;
    2690 : FF;
    2691 : FF;
    2692 : FF;
    2693 : FF;
    2694 : FF;
    2695 : FF;
    2696 : FF;
    2697 : FF;
    2698 : FF;
    2699 : FF;
    269A : FF;
    269B : FF;
    269C : FF;
    269D : FF;
    269E : FF;
    269F : FF;
    26A0 : FF;
    26A1 : FF;
    26A2 : FF;
    26A3 : FF;
    26A4 : FF;
    26A5 : FF;
    26A6 : FF;
    26A7 : FF;
    26A8 : FF;
    26A9 : FF;
    26AA : FF;
    26AB : FF;
    26AC : FF;
    26AD : FF;
    26AE : FF;
    26AF : FF;
    26B0 : FF;
    26B1 : FF;
    26B2 : FF;
    26B3 : FF;
    26B4 : FF;
    26B5 : FF;
    26B6 : FF;
    26B7 : FF;
    26B8 : FF;
    26B9 : FF;
    26BA : FF;
    26BB : FF;
    26BC : FF;
    26BD : FF;
    26BE : FF;
    26BF : FF;
    26C0 : FF;
    26C1 : FF;
    26C2 : FF;
    26C3 : FF;
    26C4 : FF;
    26C5 : FF;
    26C6 : FF;
    26C7 : FF;
    26C8 : FF;
    26C9 : FF;
    26CA : FF;
    26CB : FF;
    26CC : FF;
    26CD : FF;
    26CE : FF;
    26CF : FF;
    26D0 : FF;
    26D1 : FF;
    26D2 : FF;
    26D3 : FF;
    26D4 : FF;
    26D5 : FF;
    26D6 : FF;
    26D7 : FF;
    26D8 : FF;
    26D9 : FF;
    26DA : FF;
    26DB : FF;
    26DC : FF;
    26DD : FF;
    26DE : FF;
    26DF : FF;
    26E0 : FF;
    26E1 : FF;
    26E2 : FF;
    26E3 : FF;
    26E4 : FF;
    26E5 : FF;
    26E6 : FF;
    26E7 : FF;
    26E8 : FF;
    26E9 : FF;
    26EA : FF;
    26EB : FF;
    26EC : FF;
    26ED : FF;
    26EE : FF;
    26EF : FF;
    26F0 : FF;
    26F1 : FF;
    26F2 : FF;
    26F3 : FF;
    26F4 : FF;
    26F5 : FF;
    26F6 : FF;
    26F7 : FF;
    26F8 : FF;
    26F9 : FF;
    26FA : FF;
    26FB : FF;
    26FC : FF;
    26FD : FF;
    26FE : FF;
    26FF : FF;
    2700 : FF;
    2701 : FF;
    2702 : FF;
    2703 : FF;
    2704 : FF;
    2705 : FF;
    2706 : FF;
    2707 : FF;
    2708 : FF;
    2709 : FF;
    270A : FF;
    270B : FF;
    270C : FF;
    270D : FF;
    270E : FF;
    270F : FF;
    2710 : FF;
    2711 : FF;
    2712 : FF;
    2713 : FF;
    2714 : 0;
    2715 : 0;
    2716 : 0;
    2717 : 0;
    2718 : 0;
    2719 : 0;
    271A : 0;
    271B : 0;
    271C : 0;
    271D : 0;
    271E : 0;
    271F : 0;
    2720 : 0;
    2721 : 0;
    2722 : 0;
    2723 : 0;
    2724 : 0;
    2725 : 0;
    2726 : 0;
    2727 : 0;
    2728 : 0;
    2729 : 0;
    272A : 0;
    272B : 0;
    272C : 0;
    272D : 0;
    272E : 0;
    272F : 0;
    2730 : 0;
    2731 : 0;
    2732 : 0;
    2733 : 0;
    2734 : 0;
    2735 : 0;
    2736 : 0;
    2737 : 0;
    2738 : 0;
    2739 : 0;
    273A : 0;
    273B : 0;
    273C : 0;
    273D : 0;
    273E : 0;
    273F : 0;
    2740 : 0;
    2741 : 0;
    2742 : 0;
    2743 : 0;
    2744 : 0;
    2745 : 0;
    2746 : 0;
    2747 : 0;
    2748 : 0;
    2749 : 0;
    274A : 0;
    274B : 0;
    274C : 0;
    274D : 0;
    274E : 0;
    274F : 0;
    2750 : 0;
    2751 : 0;
    2752 : 0;
    2753 : 0;
    2754 : 0;
    2755 : 0;
    2756 : 0;
    2757 : 0;
    2758 : 0;
    2759 : 0;
    275A : 0;
    275B : 0;
    275C : 0;
    275D : 0;
    275E : 0;
    275F : 0;
    2760 : 0;
    2761 : 0;
    2762 : 0;
    2763 : 0;
    2764 : 0;
    2765 : 0;
    2766 : 0;
    2767 : 0;
    2768 : 0;
    2769 : 0;
    276A : 0;
    276B : 0;
    276C : 0;
    276D : 0;
    276E : 0;
    276F : 0;
    2770 : 0;
    2771 : 0;
    2772 : 0;
    2773 : 0;
END;
